
  Accelrys04102014222D 1   1.00000     0.00000     0

 21 24  0     0  0            999 V2000
    5.0417    0.8208    0.0000 C   0  0  0  0  0  0           0  0  0
    5.5500    0.2583    0.0000 O   0  0  0  0  0  0           0  0  0
    5.4167    1.4708    0.0000 C   0  0  0  0  0  0           0  0  0
    6.1542    1.3083    0.0000 C   0  0  0  0  0  0           0  0  0
    6.2292    0.5625    0.0000 C   0  0  0  0  0  0           0  0  0
    4.2917    0.8208    0.0000 C   0  0  0  0  0  0           0  0  0
    5.0417    2.1125    0.0000 C   0  0  0  0  0  0           0  0  0
    0.9167    2.7708    0.0000 N   0  0  0  0  0  0           0  0  0
    3.1667    1.4708    0.0000 N   0  0  0  0  0  0           0  0  0
    3.9167    1.4708    0.0000 C   0  0  0  0  0  0           0  0  0
    2.0417    2.1125    0.0000 C   0  0  0  0  0  0           0  0  0
    2.7917    2.1125    0.0000 C   0  0  0  0  0  0           0  0  0
    4.2917    2.1125    0.0000 C   0  0  0  0  0  0           0  0  0
    1.6667    2.7708    0.0000 C   0  0  0  0  0  0           0  0  0
    6.7625    1.7500    0.0000 C   0  0  0  0  0  0           0  0  0
    6.9167    0.2583    0.0000 C   0  0  0  0  0  0           0  0  0
    0.5417    2.1125    0.0000 C   0  0  0  0  0  0           0  0  0
    1.6667    1.4708    0.0000 C   0  0  0  0  0  0           0  0  0
    0.9167    1.4708    0.0000 C   0  0  0  0  0  0           0  0  0
    7.4417    1.4458    0.0000 C   0  0  0  0  0  0           0  0  0
    7.5250    0.7000    0.0000 C   0  0  0  0  0  0           0  0  0
  2  1  1  0     0  0
  3  1  2  0     0  0
  4  3  1  0     0  0
  5  2  1  0     0  0
  6  1  1  0     0  0
  7  3  1  0     0  0
  8 14  2  0     0  0
  9 10  1  0     0  0
 10  6  2  0     0  0
 11 12  1  0     0  0
 12  9  1  0     0  0
 13 10  1  0     0  0
 14 11  1  0     0  0
 15  4  1  0     0  0
 16  5  1  0     0  0
 17 19  2  0     0  0
 18 11  2  0     0  0
 19 18  1  0     0  0
 20 15  2  0     0  0
 21 16  2  0     0  0
  5  4  2  0     0  0
 13  7  2  0     0  0
 20 21  1  0     0  0
 17  8  1  0     0  0
M  END


>  <ID>
7976237

>  <cLogP>
3.54

>  <LogSW>
-4.03

>  <RB>
3

>  <tPSA>
38.1

>  <hDon>
1

>  <hAcc>
2

>  <MolName>
N-(3-pyridinylmethyl)dibenzo[b,d]furan-3-amine

$$$$
