
  Accelrys04102014222D 1   1.00000     0.00000     0

 27 29  0     0  0            999 V2000
   -9.2667    4.3542    0.0000 S   0  0  3  0  0  0           0  0  0
  -10.9375    7.2667    0.0000 N   0  0  3  0  0  0           0  0  0
    0.8292   -7.3125    0.0000 C   0  0  0  0  0  0           0  0  0
   -7.5667    1.4458    0.0000 C   0  0  0  0  0  0           0  0  0
   -6.3750    6.0417    0.0000 O   0  0  0  0  0  0           0  0  0
  -12.1792    2.6875    0.0000 O   0  0  0  0  0  0           0  0  0
    2.5250  -10.1667    0.0000 N   0  0  0  0  0  0           0  0  0
   10.9542   -7.2750    0.0000 C   0  0  0  0  0  0           0  0  0
    7.5500   -7.2917    0.0000 C   0  0  0  0  0  0           0  0  0
   -2.5375   -7.3125    0.0000 N   0  0  0  0  0  0           0  0  0
    5.8917  -10.1500    0.0000 C   0  0  0  0  0  0           0  0  0
   12.6292  -10.1292    0.0000 C   0  0  0  0  0  0           0  0  0
    2.5042   -4.3792    0.0000 O   0  0  0  0  0  0           0  0  0
  -14.3042   13.1042    0.0000 O   0  0  0  0  0  0           0  0  0
   -9.2417   -1.4500    0.0000 C   0  0  0  0  0  0           0  0  0
   -4.2333    1.4708    0.0000 C   0  0  0  0  0  0           0  0  0
   10.9667  -13.1292    0.0000 C   0  0  0  0  0  0           0  0  0
  -14.3042    7.2417    0.0000 C   0  0  0  0  0  0           0  0  0
   -9.2417   10.1625    0.0000 C   0  0  0  0  0  0           0  0  0
   -4.2083   -4.3917    0.0000 C   0  0  0  0  0  0           0  0  0
   12.6417   -4.3417    0.0000 Cl  0  0  0  0  0  0           0  0  0
    7.6042  -13.1292    0.0000 C   0  0  0  0  0  0           0  0  0
   16.0000  -10.0917    0.0000 F   0  0  0  0  0  0           0  0  0
   -7.5667   -4.4167    0.0000 C   0  0  0  0  0  0           0  0  0
   -2.5125   -1.5000    0.0000 C   0  0  0  0  0  0           0  0  0
  -16.0000   10.2125    0.0000 C   0  0  0  0  0  0           0  0  0
  -10.9625   13.1292    0.0000 C   0  0  0  0  0  0           0  0  0
  2  1  1  0     0  0
  3 10  1  0     0  0
  4  1  1  0     0  0
  5  1  2  0     0  0
  6  1  2  0     0  0
  7  3  1  0     0  0
  8  9  1  0     0  0
  9 11  2  0     0  0
 10 20  1  0     0  0
 11  7  1  0     0  0
 12 17  1  0     0  0
 13  3  2  0     0  0
 14 27  1  0     0  0
 15  4  2  0     0  0
 16  4  1  0     0  0
 17 22  2  0     0  0
 18  2  1  0     0  0
 19  2  1  0     0  0
 20 25  1  0     0  0
 21  8  1  0     0  0
 22 11  1  0     0  0
 23 12  1  0     0  0
 24 15  1  0     0  0
 25 16  2  0     0  0
 26 18  1  0     0  0
 27 19  1  0     0  0
 20 24  2  0     0  0
 14 26  1  0     0  0
 12  8  2  0     0  0
M  END


>  <ID>
7798500

>  <cLogP>
3.69

>  <LogSW>
-5.37

>  <RB>
3

>  <tPSA>
87.7

>  <hDon>
2

>  <hAcc>
5

>  <MolName>
N-(3-chloro-4-fluorophenyl)-N'-[4-(4-morpholinylsulfonyl)phenyl]urea

$$$$
