
  Accelrys04102014222D 1   1.00000     0.00000     0

 26 29  0     0  0            999 V2000
    5.7375   -4.0375    0.0000 N   0  0  3  0  0  0           0  0  0
    7.0375   -3.7625    0.0000 C   0  0  0  0  0  0           0  0  0
    6.4875   -4.3750    0.0000 C   0  0  0  0  0  0           0  0  0
    5.8250   -3.2167    0.0000 C   0  0  0  0  0  0           0  0  0
    6.6292   -3.0500    0.0000 C   0  0  0  0  0  0           0  0  0
    7.8625   -3.8500    0.0000 C   0  0  0  0  0  0           0  0  0
    5.0167   -4.4542    0.0000 C   0  0  0  0  0  0           0  0  0
    8.6875   -3.8792    0.0000 N   0  0  0  0  0  0           0  0  0
    2.1500   -1.9917    0.0000 C   0  0  0  0  0  0           0  0  0
    4.2917   -4.0417    0.0000 C   0  0  0  0  0  0           0  0  0
    2.8667   -1.5792    0.0000 C   0  0  0  0  0  0           0  0  0
    1.5292   -1.4375    0.0000 O   0  0  0  0  0  0           0  0  0
    2.6917   -0.7667    0.0000 O   0  0  0  0  0  0           0  0  0
    1.8667   -0.6792    0.0000 C   0  0  0  0  0  0           0  0  0
    3.5792   -4.4542    0.0000 N   0  0  0  0  0  0           0  0  0
    2.1500   -2.8167    0.0000 C   0  0  0  0  0  0           0  0  0
    4.3000   -3.2125    0.0000 O   0  0  0  0  0  0           0  0  0
    3.5792   -1.9917    0.0000 C   0  0  0  0  0  0           0  0  0
    2.8667   -3.2167    0.0000 C   0  0  0  0  0  0           0  0  0
    6.6542   -5.1792    0.0000 C   0  0  0  0  0  0           0  0  0
    2.8625   -4.0500    0.0000 C   0  0  0  0  0  0           0  0  0
    3.5792   -2.8167    0.0000 C   0  0  0  0  0  0           0  0  0
    5.2667   -2.6125    0.0000 C   0  0  0  0  0  0           0  0  0
    6.8792   -2.2625    0.0000 C   0  0  0  0  0  0           0  0  0
    5.5167   -1.8250    0.0000 C   0  0  0  0  0  0           0  0  0
    6.3250   -1.6500    0.0000 C   0  0  0  0  0  0           0  0  0
  2  3  2  0     0  0
  3  1  1  0     0  0
  4  1  1  0     0  0
  5  4  2  0     0  0
  6  2  1  0     0  0
  7  1  1  0     0  0
  8  6  3  0     0  0
  9 16  2  0     0  0
 10  7  1  0     0  0
 11 18  2  0     0  0
 12  9  1  0     0  0
 13 11  1  0     0  0
 14 12  1  0     0  0
 15 10  1  0     0  0
 16 19  1  0     0  0
 17 10  2  0     0  0
 18 22  1  0     0  0
 19 21  1  0     0  0
 20  3  1  0     0  0
 21 15  1  0     0  0
 22 19  2  0     0  0
 23  4  1  0     0  0
 24  5  1  0     0  0
 25 23  2  0     0  0
 26 25  1  0     0  0
  2  5  1  0     0  0
 24 26  2  0     0  0
  9 11  1  0     0  0
 13 14  1  0     0  0
M  END


>  <ID>
6874634

>  <cLogP>
3.16

>  <LogSW>
-4.70

>  <RB>
4

>  <tPSA>
76.3

>  <hDon>
1

>  <hAcc>
4

>  <MolName>
N-(1,3-benzodioxol-5-ylmethyl)-2-(3-cyano-2-methyl-1H-indol-1-yl)acetamide

$$$$

  Accelrys04102014222D 1   1.00000     0.00000     0

 28 31  0     0  0            999 V2000
   -0.1625    0.2500    0.0000 C   0  0  0  0  0  0           0  0  0
   -0.1000   -0.6792    0.0000 N   0  0  0  0  0  0           0  0  0
   -1.0625    0.4958    0.0000 C   0  0  0  0  0  0           0  0  0
   -1.5625   -0.2875    0.0000 C   0  0  0  0  0  0           0  0  0
   -0.9833   -1.0042    0.0000 C   0  0  0  0  0  0           0  0  0
   -2.4833   -0.4375    0.0000 C   0  0  0  0  0  0           0  0  0
   -2.8208   -1.3042    0.0000 C   0  0  0  0  0  0           0  0  0
    0.5000    0.9125    0.0000 C   0  0  3  0  0  0           0  0  0
    1.4000    0.7000    0.0000 N   0  0  0  0  0  0           0  0  0
   -1.3208   -1.8792    0.0000 C   0  0  0  0  0  0           0  0  0
   -2.2625   -2.0292    0.0000 C   0  0  0  0  0  0           0  0  0
   -3.7625   -1.4292    0.0000 C   0  0  0  0  0  0           0  0  0
   -1.3208    1.3958    0.0000 C   0  0  0  0  0  0           0  0  0
    2.0375    1.3625    0.0000 C   0  0  0  0  0  0           0  0  0
    2.9375    1.1500    0.0000 C   0  0  0  0  0  0           0  0  0
   -0.6625    2.0500    0.0000 C   0  0  0  0  0  0           0  0  0
    0.2375    1.8125    0.0000 C   0  0  0  0  0  0           0  0  0
   -4.4458   -0.8000    0.0000 C   0  0  0  0  0  0           0  0  0
   -3.9833   -2.3292    0.0000 C   0  0  0  0  0  0           0  0  0
    3.2000    0.2500    0.0000 C   0  0  0  0  0  0           0  0  0
    3.5792    1.8125    0.0000 C   0  0  0  0  0  0           0  0  0
   -5.3458   -1.0375    0.0000 C   0  0  0  0  0  0           0  0  0
   -4.8625   -2.6000    0.0000 C   0  0  0  0  0  0           0  0  0
    4.4792    1.6000    0.0000 C   0  0  0  0  0  0           0  0  0
    4.1000    0.0125    0.0000 C   0  0  0  0  0  0           0  0  0
   -5.5625   -1.9375    0.0000 C   0  0  0  0  0  0           0  0  0
    4.7375    0.7000    0.0000 C   0  0  0  0  0  0           0  0  0
    4.5167    3.0167    0.0000 Cl  0  0  0  0  0  0           0  0  0
  2  1  1  0     0  0
  3  1  2  0     0  0
  4  3  1  0     0  0
  5  2  1  0     0  0
  6  4  1  0     0  0
  7  6  2  0     0  0
  8  1  1  0     0  0
  9  8  1  0     0  0
 10  5  1  0     0  0
 11 10  2  0     0  0
 12  7  1  0     0  0
 13  3  1  0     0  0
 14  9  1  0     0  0
 15 14  1  0     0  0
 16 17  1  0     0  0
 17  8  1  0     0  0
 18 12  2  0     0  0
 19 12  1  0     0  0
 20 15  2  0     0  0
 21 15  1  0     0  0
 22 18  1  0     0  0
 23 19  2  0     0  0
 24 21  2  0     0  0
 25 20  1  0     0  0
 26 23  1  0     0  0
 27 24  1  0     0  0
  5  4  2  0     0  0
 16 13  1  0     0  0
 11  7  1  0     0  0
 25 27  2  0     0  0
 22 26  2  0     0  0
M  END


>  <ID>
5219666

>  <cLogP>
6.27

>  <LogSW>
-6.12

>  <RB>
4

>  <tPSA>
27.8

>  <hDon>
2

>  <hAcc>
1

>  <MolName>
N-benzyl-6-phenyl-2,3,4,9-tetrahydro-1H-carbazol-1-amine hydrochloride

$$$$
