
  Accelrys04102014222D 1   1.00000     0.00000     0

 26 29  0     0  0            999 V2000
    6.1792    2.6542    0.0000 C   0  0  0  0  0  0           0  0  0
    4.2292    2.2792    0.0000 C   0  0  0  0  0  0           0  0  0
    6.8625    2.3458    0.0000 N   0  0  0  0  0  0           0  0  0
    4.8792    2.6542    0.0000 C   0  0  0  0  0  0           0  0  0
    5.5292    2.2792    0.0000 N   0  0  0  0  0  0           0  0  0
    2.2833    2.6542    0.0000 N   0  0  3  0  0  0           0  0  0
    7.3667    2.9042    0.0000 C   0  0  0  0  0  0           0  0  0
    3.5792    2.6542    0.0000 C   0  0  0  0  0  0           0  0  0
    6.2583    3.4000    0.0000 S   0  0  0  0  0  0           0  0  0
    1.4708    3.5542    0.0000 N   0  0  0  0  0  0           0  0  0
    1.0958    2.9042    0.0000 N   0  0  0  0  0  0           0  0  0
    2.9333    2.2792    0.0000 C   0  0  0  0  0  0           0  0  0
    6.9917    3.5542    0.0000 C   0  0  0  0  0  0           0  0  0
    2.2042    3.4000    0.0000 C   0  0  0  0  0  0           0  0  0
    1.5958    2.3458    0.0000 C   0  0  0  0  0  0           0  0  0
    4.2292    1.5292    0.0000 C   0  0  0  0  0  0           0  0  0
    4.8792    3.4042    0.0000 O   0  0  0  0  0  0           0  0  0
    8.1125    2.8250    0.0000 C   0  0  0  0  0  0           0  0  0
    2.9333    1.5292    0.0000 C   0  0  0  0  0  0           0  0  0
    3.5792    1.1542    0.0000 C   0  0  0  0  0  0           0  0  0
    4.8792    1.1542    0.0000 Cl  0  0  0  0  0  0           0  0  0
    8.4167    2.1417    0.0000 C   0  0  0  0  0  0           0  0  0
    8.5542    3.4333    0.0000 C   0  0  0  0  0  0           0  0  0
    9.3000    3.3542    0.0000 C   0  0  0  0  0  0           0  0  0
    9.1625    2.0625    0.0000 C   0  0  0  0  0  0           0  0  0
    9.6042    2.6708    0.0000 C   0  0  0  0  0  0           0  0  0
  2  4  1  0     0  0
  3  1  2  0     0  0
  4  5  1  0     0  0
  5  1  1  0     0  0
  6 12  1  0     0  0
  7  3  1  0     0  0
  8  2  2  0     0  0
  9  1  1  0     0  0
 10 14  2  0     0  0
 11 15  2  0     0  0
 12  8  1  0     0  0
 13  9  1  0     0  0
 14  6  1  0     0  0
 15  6  1  0     0  0
 16  2  1  0     0  0
 17  4  2  0     0  0
 18  7  1  0     0  0
 19 20  1  0     0  0
 20 16  2  0     0  0
 21 16  1  0     0  0
 22 18  1  0     0  0
 23 18  2  0     0  0
 24 23  1  0     0  0
 25 22  2  0     0  0
 26 24  2  0     0  0
  7 13  2  0     0  0
 12 19  2  0     0  0
 26 25  1  0     0  0
 10 11  1  0     0  0
M  END


>  <ID>
7931205

>  <cLogP>
2.32

>  <LogSW>
-3.96

>  <RB>
4

>  <tPSA>
72.7

>  <hDon>
1

>  <hAcc>
4

>  <MolName>
2-chloro-N-(4-phenyl-1,3-thiazol-2-yl)-5-(4H-1,2,4-triazol-4-yl)benzamide

$$$$
