
  Accelrys04102014222D 1   1.00000     0.00000     0

 23 24  0     0  0            999 V2000
  -10.6292    7.8042    0.0000 S   0  0  3  0  0  0           0  0  0
   -0.0958   -4.7500    0.0000 C   0  0  0  0  0  0           0  0  0
   -8.8167    4.6042    0.0000 C   0  0  0  0  0  0           0  0  0
    1.7000   -7.7792    0.0000 N   0  0  0  0  0  0           0  0  0
   10.6417   -4.7125    0.0000 C   0  0  0  0  0  0           0  0  0
    7.0292   -4.7292    0.0000 C   0  0  0  0  0  0           0  0  0
   -7.5792    9.6042    0.0000 O   0  0  0  0  0  0           0  0  0
  -13.7292    6.0250    0.0000 O   0  0  0  0  0  0           0  0  0
   -3.6708   -4.7500    0.0000 N   0  0  0  0  0  0           0  0  0
  -12.3792   10.9292    0.0000 N   0  0  0  0  0  0           0  0  0
    5.2750   -7.7667    0.0000 C   0  0  0  0  0  0           0  0  0
   12.4250   -7.7417    0.0000 C   0  0  0  0  0  0           0  0  0
    1.6792   -1.6417    0.0000 O   0  0  0  0  0  0           0  0  0
   -5.3458    4.6042    0.0000 C   0  0  0  0  0  0           0  0  0
  -10.6917    1.6083    0.0000 C   0  0  0  0  0  0           0  0  0
   10.6625  -10.9292    0.0000 C   0  0  0  0  0  0           0  0  0
   -5.4333   -1.6042    0.0000 C   0  0  0  0  0  0           0  0  0
   12.4417   -1.6042    0.0000 Cl  0  0  0  0  0  0           0  0  0
    7.0917  -10.9292    0.0000 C   0  0  0  0  0  0           0  0  0
   16.0000   -7.7042    0.0000 F   0  0  0  0  0  0           0  0  0
   -8.9417   -1.5375    0.0000 C   0  0  0  0  0  0           0  0  0
   -3.6083    1.4958    0.0000 C   0  0  0  0  0  0           0  0  0
  -16.0000   10.9292    0.0000 C   0  0  0  0  0  0           0  0  0
  2  9  1  0     0  0
  3  1  1  0     0  0
  4  2  1  0     0  0
  5  6  1  0     0  0
  6 11  2  0     0  0
  7  1  2  0     0  0
  8  1  2  0     0  0
  9 17  1  0     0  0
 10  1  1  0     0  0
 11  4  1  0     0  0
 12 16  1  0     0  0
 13  2  2  0     0  0
 14  3  2  0     0  0
 15  3  1  0     0  0
 16 19  2  0     0  0
 17 21  1  0     0  0
 18  5  1  0     0  0
 19 11  1  0     0  0
 20 12  1  0     0  0
 21 15  2  0     0  0
 22 14  1  0     0  0
 23 10  1  0     0  0
 22 17  2  0     0  0
 12  5  2  0     0  0
M  END


>  <ID>
7790059

>  <cLogP>
3.17

>  <LogSW>
-4.52

>  <RB>
3

>  <tPSA>
87.3

>  <hDon>
3

>  <hAcc>
4

>  <MolName>
4-({[(3-chloro-4-fluorophenyl)amino]carbonyl}amino)-N-methylbenzenesulfonamide

$$$$
