
  Accelrys04102014222D 1   1.00000     0.00000     0

 21 23  0     0  0            999 V2000
    4.0667    1.7625    0.0000 C   0  0  0  0  0  0           0  0  0
    4.4417    1.1125    0.0000 C   0  0  0  0  0  0           0  0  0
    4.4417    2.4125    0.0000 C   0  0  0  0  0  0           0  0  0
    3.3167    1.7625    0.0000 C   0  0  0  0  0  0           0  0  0
    5.1917    1.1125    0.0000 O   0  0  0  0  0  0           0  0  0
    5.1917    2.4125    0.0000 C   0  0  0  0  0  0           0  0  0
    5.5667    1.7625    0.0000 C   0  0  0  0  0  0           0  0  0
    2.9417    2.4125    0.0000 N   0  0  0  0  0  0           0  0  0
    4.0667    0.4625    0.0000 O   0  0  0  0  0  0           0  0  0
    2.9417    1.1125    0.0000 O   0  0  0  0  0  0           0  0  0
    5.5667    3.0583    0.0000 C   0  0  0  0  0  0           0  0  0
    1.0667    3.0583    0.0000 N   0  0  0  0  0  0           0  0  0
    6.3167    1.7625    0.0000 C   0  0  0  0  0  0           0  0  0
    6.3167    3.0583    0.0000 C   0  0  0  0  0  0           0  0  0
    2.1917    2.4125    0.0000 C   0  0  0  0  0  0           0  0  0
    6.6917    2.4125    0.0000 C   0  0  0  0  0  0           0  0  0
    6.6917    3.7083    0.0000 Br  0  0  0  0  0  0           0  0  0
    1.8167    3.0583    0.0000 C   0  0  0  0  0  0           0  0  0
    0.6917    2.4125    0.0000 C   0  0  0  0  0  0           0  0  0
    1.8167    1.7625    0.0000 C   0  0  0  0  0  0           0  0  0
    1.0667    1.7625    0.0000 C   0  0  0  0  0  0           0  0  0
  2  1  1  0     0  0
  3  1  2  0     0  0
  4  1  1  0     0  0
  5  2  1  0     0  0
  6  3  1  0     0  0
  7  6  2  0     0  0
  8  4  1  0     0  0
  9  2  2  0     0  0
 10  4  2  0     0  0
 11  6  1  0     0  0
 12 18  2  0     0  0
 13  7  1  0     0  0
 14 11  2  0     0  0
 15  8  1  0     0  0
 16 14  1  0     0  0
 17 14  1  0     0  0
 18 15  1  0     0  0
 19 21  2  0     0  0
 20 15  2  0     0  0
 21 20  1  0     0  0
  7  5  1  0     0  0
 16 13  2  0     0  0
 19 12  1  0     0  0
M  END


>  <ID>
7947992

>  <cLogP>
2.40

>  <LogSW>
-3.76

>  <RB>
2

>  <tPSA>
72.2

>  <hDon>
1

>  <hAcc>
4

>  <MolName>
6-bromo-2-oxo-N-3-pyridinyl-2H-chromene-3-carboxamide

$$$$
