
  Accelrys04102014222D 1   1.00000     0.00000     0

 28 31  0     0  0            999 V2000
    3.7542    2.1583    0.0000 S   0  0  3  0  0  0           0  0  0
    7.9250    1.9333    0.0000 C   0  0  0  0  0  0           0  0  0
    3.7167    2.9083    0.0000 N   0  0  0  0  0  0           0  0  0
    3.0500    3.2458    0.0000 C   0  0  0  0  0  0           0  0  0
    7.1917    2.0958    0.0000 C   0  0  0  0  0  0           0  0  0
    8.2292    1.2500    0.0000 C   0  0  0  0  0  0           0  0  0
    2.9292    3.9875    0.0000 N   0  0  0  0  0  0           0  0  0
    2.3792    2.9083    0.0000 C   0  0  0  0  0  0           0  0  0
    8.4792    2.4375    0.0000 C   0  0  0  0  0  0           0  0  0
    8.9792    1.3250    0.0000 S   0  0  0  0  0  0           0  0  0
    2.1917    4.0958    0.0000 O   0  0  0  0  0  0           0  0  0
    6.6917    1.5333    0.0000 N   0  0  0  0  0  0           0  0  0
    4.4917    2.0000    0.0000 C   0  0  0  0  0  0           0  0  0
    1.8500    3.4333    0.0000 C   0  0  0  0  0  0           0  0  0
    3.0042    2.1833    0.0000 O   0  0  0  0  0  0           0  0  0
    3.6667    1.4125    0.0000 O   0  0  0  0  0  0           0  0  0
    9.1292    2.0625    0.0000 C   0  0  0  0  0  0           0  0  0
    6.9625    2.8083    0.0000 O   0  0  0  0  0  0           0  0  0
    4.7167    1.2875    0.0000 C   0  0  0  0  0  0           0  0  0
    4.9917    2.5583    0.0000 C   0  0  0  0  0  0           0  0  0
    5.9542    1.6875    0.0000 C   0  0  0  0  0  0           0  0  0
    5.4542    1.1333    0.0000 C   0  0  0  0  0  0           0  0  0
    5.7250    2.4000    0.0000 C   0  0  0  0  0  0           0  0  0
    8.4792    3.1875    0.0000 C   0  0  0  0  0  0           0  0  0
    1.1042    3.3208    0.0000 C   0  0  0  0  0  0           0  0  0
    9.7792    2.4375    0.0000 C   0  0  0  0  0  0           0  0  0
    9.1292    3.5625    0.0000 C   0  0  0  0  0  0           0  0  0
    9.7792    3.1875    0.0000 C   0  0  0  0  0  0           0  0  0
  2  5  1  0     0  0
  3  1  1  0     0  0
  4  3  1  0     0  0
  5 12  1  0     0  0
  6  2  2  0     0  0
  7  4  2  0     0  0
  8  4  1  0     0  0
  9  2  1  0     0  0
 10  6  1  0     0  0
 11  7  1  0     0  0
 12 21  1  0     0  0
 13  1  1  0     0  0
 14  8  2  0     0  0
 15  1  2  0     0  0
 16  1  2  0     0  0
 17  9  2  0     0  0
 18  5  2  0     0  0
 19 13  2  0     0  0
 20 13  1  0     0  0
 21 23  1  0     0  0
 22 19  1  0     0  0
 23 20  2  0     0  0
 24  9  1  0     0  0
 25 14  1  0     0  0
 26 17  1  0     0  0
 27 24  2  0     0  0
 28 27  1  0     0  0
 21 22  2  0     0  0
 11 14  1  0     0  0
 10 17  1  0     0  0
 28 26  2  0     0  0
M  END


>  <ID>
7948190

>  <cLogP>
3.63

>  <LogSW>
-5.31

>  <RB>
4

>  <tPSA>
101.3

>  <hDon>
2

>  <hAcc>
5

>  <MolName>
N-(4-{[(5-methyl-3-isoxazolyl)amino]sulfonyl}phenyl)-1-benzothiophene-3-carboxamide

$$$$
