
  Accelrys04102014222D 1   1.00000     0.00000     0

 25 28  0     0  0            999 V2000
    6.8042    4.0792    0.0000 N   0  0  3  0  0  0           0  0  0
    6.0667    3.9333    0.0000 N   0  0  0  0  0  0           0  0  0
    7.1125    4.7625    0.0000 C   0  0  0  0  0  0           0  0  0
    7.1792    3.4333    0.0000 C   0  0  3  0  0  0           0  0  0
    5.9917    3.1833    0.0000 C   0  0  0  0  0  0           0  0  0
    6.6792    2.8750    0.0000 C   0  0  0  0  0  0           0  0  0
    6.6667    5.3667    0.0000 C   0  0  0  0  0  0           0  0  0
    7.9250    3.3583    0.0000 C   0  0  0  0  0  0           0  0  0
    5.3417    2.8083    0.0000 C   0  0  0  0  0  0           0  0  0
    6.9000    6.0792    0.0000 O   0  0  0  0  0  0           0  0  0
    8.3000    2.7083    0.0000 O   0  0  0  0  0  0           0  0  0
    7.8542    4.8417    0.0000 O   0  0  0  0  0  0           0  0  0
    5.9167    5.3667    0.0000 C   0  0  0  0  0  0           0  0  0
    8.4292    3.9167    0.0000 C   0  0  0  0  0  0           0  0  0
    4.6917    3.1833    0.0000 C   0  0  0  0  0  0           0  0  0
    6.2917    6.5250    0.0000 C   0  0  0  0  0  0           0  0  0
    9.0292    2.8625    0.0000 C   0  0  0  0  0  0           0  0  0
    9.1125    3.6083    0.0000 C   0  0  0  0  0  0           0  0  0
    5.6875    6.0792    0.0000 C   0  0  0  0  0  0           0  0  0
    4.0417    2.8083    0.0000 C   0  0  0  0  0  0           0  0  0
    3.3917    3.1833    0.0000 O   0  0  0  0  0  0           0  0  0
    5.3417    2.0583    0.0000 C   0  0  0  0  0  0           0  0  0
    4.6917    1.6833    0.0000 C   0  0  0  0  0  0           0  0  0
    4.0417    2.0583    0.0000 C   0  0  0  0  0  0           0  0  0
    2.7417    2.8083    0.0000 C   0  0  0  0  0  0           0  0  0
  2  1  1  0     0  0
  3  1  1  0     0  0
  4  1  1  0     0  0
  5  2  2  0     0  0
  6  4  1  0     0  0
  7  3  1  0     0  0
  8  4  1  0     0  0
  9  5  1  0     0  0
 10  7  1  0     0  0
 11  8  1  0     0  0
 12  3  2  0     0  0
 13  7  2  0     0  0
 14  8  2  0     0  0
 15  9  2  0     0  0
 16 10  1  0     0  0
 17 11  1  0     0  0
 18 14  1  0     0  0
 19 13  1  0     0  0
 20 15  1  0     0  0
 21 20  1  0     0  0
 22  9  1  0     0  0
 23 22  2  0     0  0
 24 23  1  0     0  0
 25 21  1  0     0  0
  6  5  1  0     0  0
 17 18  2  0     0  0
 16 19  2  0     0  0
 24 20  2  0     0  0
M  END


>  <ID>
7909513

>  <cLogP>
2.86

>  <LogSW>
-4.10

>  <RB>
3

>  <tPSA>
68.2

>  <hDon>
0

>  <hAcc>
5

>  <MolName>
1-(2-furoyl)-5-(2-furyl)-3-(3-methoxyphenyl)-4,5-dihydro-1H-pyrazole

$$$$
