
  Accelrys04102014222D 1   1.00000     0.00000     0

 24 26  0     0  0            999 V2000
    4.0125    1.5208    0.0000 C   0  0  0  0  0  0           0  0  0
    4.6625    1.1458    0.0000 C   0  0  0  0  0  0           0  0  0
    2.0375    1.3500    0.0000 C   0  0  0  0  0  0           0  0  0
    2.7167    1.6583    0.0000 C   0  0  0  0  0  0           0  0  0
    3.3292    1.2125    0.0000 N   0  0  0  0  0  0           0  0  0
    4.1667    2.2583    0.0000 S   0  0  0  0  0  0           0  0  0
    4.9125    2.3333    0.0000 C   0  0  0  0  0  0           0  0  0
    5.2167    1.6458    0.0000 C   0  0  0  0  0  0           0  0  0
    4.7417    0.4000    0.0000 C   0  0  0  0  0  0           0  0  0
    1.3875    1.7250    0.0000 C   0  0  0  0  0  0           0  0  0
    1.8792    0.6208    0.0000 C   0  0  0  0  0  0           0  0  0
    0.8292    1.2250    0.0000 O   0  0  0  0  0  0           0  0  0
    1.1292    0.5375    0.0000 C   0  0  0  0  0  0           0  0  0
    2.8000    2.4000    0.0000 O   0  0  0  0  0  0           0  0  0
    5.4250    0.0958    0.0000 O   0  0  0  0  0  0           0  0  0
    5.2875    2.9833    0.0000 C   0  0  0  0  0  0           0  0  0
    4.1292   -0.0417    0.0000 N   0  0  0  0  0  0           0  0  0
    6.0375    2.9833    0.0000 C   0  0  0  0  0  0           0  0  0
    1.3042    2.4708    0.0000 C   0  0  0  0  0  0           0  0  0
    6.4125    2.3333    0.0000 C   0  0  0  0  0  0           0  0  0
    6.4125    3.6333    0.0000 C   0  0  0  0  0  0           0  0  0
    7.1625    3.6333    0.0000 C   0  0  0  0  0  0           0  0  0
    7.1625    2.3333    0.0000 C   0  0  0  0  0  0           0  0  0
    7.5375    2.9833    0.0000 C   0  0  0  0  0  0           0  0  0
  2  1  2  0     0  0
  3  4  1  0     0  0
  4  5  1  0     0  0
  5  1  1  0     0  0
  6  1  1  0     0  0
  7  6  1  0     0  0
  8  2  1  0     0  0
  9  2  1  0     0  0
 10  3  2  0     0  0
 11  3  1  0     0  0
 12 10  1  0     0  0
 13 11  2  0     0  0
 14  4  2  0     0  0
 15  9  2  0     0  0
 16  7  1  0     0  0
 17  9  1  0     0  0
 18 16  1  0     0  0
 19 10  1  0     0  0
 20 18  2  0     0  0
 21 18  1  0     0  0
 22 21  2  0     0  0
 23 20  1  0     0  0
 24 22  1  0     0  0
  7  8  2  0     0  0
 12 13  1  0     0  0
 23 24  2  0     0  0
M  END


>  <ID>
7946410

>  <cLogP>
3.00

>  <LogSW>
-4.25

>  <RB>
5

>  <tPSA>
85.3

>  <hDon>
2

>  <hAcc>
3

>  <MolName>
N-[3-(aminocarbonyl)-5-benzyl-2-thienyl]-2-methyl-3-furamide

$$$$
