
  Accelrys04102014222D 1   1.00000     0.00000     0

 27 30  0     0  0            999 V2000
    2.9667    3.1917    0.0000 C   0  0  0  0  0  0           0  0  0
    3.4083    2.5833    0.0000 N   0  0  0  0  0  0           0  0  0
    3.4083    3.8000    0.0000 N   0  0  3  0  0  0           0  0  0
    4.1208    2.8167    0.0000 C   0  0  0  0  0  0           0  0  0
    6.7208    2.8167    0.0000 C   0  0  0  0  0  0           0  0  0
    4.1208    3.5667    0.0000 C   0  0  0  0  0  0           0  0  0
    7.3708    2.4417    0.0000 C   0  0  0  0  0  0           0  0  0
    6.0708    2.4417    0.0000 N   0  0  0  0  0  0           0  0  0
    2.2167    3.1917    0.0000 C   0  0  0  0  0  0           0  0  0
    4.7708    2.4417    0.0000 C   0  0  0  0  0  0           0  0  0
    1.8417    2.5417    0.0000 N   0  0  3  0  0  0           0  0  0
    4.7708    3.9417    0.0000 C   0  0  0  0  0  0           0  0  0
    5.4208    2.8167    0.0000 C   0  0  0  0  0  0           0  0  0
    6.7208    3.5667    0.0000 O   0  0  0  0  0  0           0  0  0
    7.3708    1.6917    0.0000 C   0  0  0  0  0  0           0  0  0
    5.4208    3.5667    0.0000 C   0  0  0  0  0  0           0  0  0
    3.1792    4.5083    0.0000 C   0  0  0  0  0  0           0  0  0
    8.0208    2.8167    0.0000 C   0  0  0  0  0  0           0  0  0
    6.7208    1.3167    0.0000 O   0  0  0  0  0  0           0  0  0
    1.0958    2.4625    0.0000 C   0  0  0  0  0  0           0  0  0
    2.1500    1.8583    0.0000 C   0  0  0  0  0  0           0  0  0
    8.0208    1.3167    0.0000 C   0  0  0  0  0  0           0  0  0
    6.7208    0.5667    0.0000 C   0  0  0  0  0  0           0  0  0
    8.6708    2.4417    0.0000 C   0  0  0  0  0  0           0  0  0
    1.5917    1.3542    0.0000 C   0  0  0  0  0  0           0  0  0
    0.9417    1.7292    0.0000 C   0  0  0  0  0  0           0  0  0
    8.6708    1.6917    0.0000 C   0  0  0  0  0  0           0  0  0
  2  1  2  0     0  0
  3  1  1  0     0  0
  4  2  1  0     0  0
  5  8  1  0     0  0
  6  3  1  0     0  0
  7  5  1  0     0  0
  8 13  1  0     0  0
  9  1  1  0     0  0
 10  4  1  0     0  0
 11  9  1  0     0  0
 12  6  1  0     0  0
 13 10  2  0     0  0
 14  5  2  0     0  0
 15  7  2  0     0  0
 16 12  2  0     0  0
 17  3  1  0     0  0
 18  7  1  0     0  0
 19 15  1  0     0  0
 20 11  1  0     0  0
 21 11  1  0     0  0
 22 15  1  0     0  0
 23 19  1  0     0  0
 24 18  2  0     0  0
 25 21  1  0     0  0
 26 20  1  0     0  0
 27 24  1  0     0  0
  4  6  2  0     0  0
 25 26  1  0     0  0
 16 13  1  0     0  0
 22 27  2  0     0  0
M  END


>  <ID>
7950181

>  <cLogP>
3.21

>  <LogSW>
-4.60

>  <RB>
4

>  <tPSA>
59.4

>  <hDon>
1

>  <hAcc>
4

>  <MolName>
2-methoxy-N-[1-methyl-2-(1-pyrrolidinylmethyl)-1H-benzimidazol-5-yl]benzamide

$$$$
