
  Accelrys04102014222D 1   1.00000     0.00000     0

 31 34  0     0  0            999 V2000
    4.5375    3.1625    0.0000 C   0  0  0  0  0  0           0  0  0
    3.7875    3.1625    0.0000 N   0  0  3  0  0  0           0  0  0
    4.9125    2.5125    0.0000 C   0  0  3  0  0  0           0  0  0
    5.9208    3.2167    0.0000 C   0  0  0  0  0  0           0  0  0
    5.6625    2.5125    0.0000 N   0  0  0  0  0  0           0  0  0
    2.2875    3.1625    0.0000 N   0  0  3  0  0  0           0  0  0
    4.5375    1.8625    0.0000 C   0  0  0  0  0  0           0  0  0
    3.4125    2.5125    0.0000 C   0  0  0  0  0  0           0  0  0
    3.4125    3.8125    0.0000 C   0  0  0  0  0  0           0  0  0
    2.6625    3.8125    0.0000 C   0  0  0  0  0  0           0  0  0
    2.6625    2.5125    0.0000 C   0  0  0  0  0  0           0  0  0
    4.9125    3.8125    0.0000 O   0  0  0  0  0  0           0  0  0
    5.5833    3.6208    0.0000 O   0  0  0  0  0  0           0  0  0
    1.5375    3.1625    0.0000 C   0  0  0  0  0  0           0  0  0
    6.6583    3.3458    0.0000 C   0  0  0  0  0  0           0  0  0
    5.0208    1.2875    0.0000 C   0  0  0  0  0  0           0  0  0
    1.1625    3.8125    0.0000 C   0  0  0  0  0  0           0  0  0
    1.1625    2.5125    0.0000 C   0  0  0  0  0  0           0  0  0
    6.9167    4.0500    0.0000 C   0  0  0  0  0  0           0  0  0
    7.1417    2.7750    0.0000 C   0  0  0  0  0  0           0  0  0
    4.7625    0.5833    0.0000 C   0  0  0  0  0  0           0  0  0
    5.7583    1.4208    0.0000 C   0  0  0  0  0  0           0  0  0
    0.4125    2.5125    0.0000 C   0  0  0  0  0  0           0  0  0
    7.6542    4.1792    0.0000 C   0  0  0  0  0  0           0  0  0
    7.8792    2.9042    0.0000 C   0  0  0  0  0  0           0  0  0
    0.4125    3.8125    0.0000 C   0  0  0  0  0  0           0  0  0
    6.2417    0.8458    0.0000 C   0  0  0  0  0  0           0  0  0
    5.2458    0.0083    0.0000 C   0  0  0  0  0  0           0  0  0
    5.9833    0.1417    0.0000 C   0  0  0  0  0  0           0  0  0
    8.1375    3.6083    0.0000 C   0  0  0  0  0  0           0  0  0
    0.0375    3.1625    0.0000 C   0  0  0  0  0  0           0  0  0
  2  1  1  0     0  0
  3  1  1  0     0  0
  4  5  1  0     0  0
  5  3  1  0     0  0
  6 10  1  0     0  0
  7  3  1  0     0  0
  8  2  1  0     0  0
  9  2  1  0     0  0
 10  9  1  0     0  0
 11  8  1  0     0  0
 12  1  2  0     0  0
 13  4  2  0     0  0
 14  6  1  0     0  0
 15  4  1  0     0  0
 16  7  1  0     0  0
 17 14  1  0     0  0
 18 14  2  0     0  0
 19 15  2  0     0  0
 20 15  1  0     0  0
 21 16  1  0     0  0
 22 16  2  0     0  0
 23 18  1  0     0  0
 24 19  1  0     0  0
 25 20  2  0     0  0
 26 17  2  0     0  0
 27 22  1  0     0  0
 28 21  2  0     0  0
 29 27  2  0     0  0
 30 25  1  0     0  0
 31 23  2  0     0  0
  6 11  1  0     0  0
 29 28  1  0     0  0
 30 24  2  0     0  0
 31 26  1  0     0  0
M  END


>  <ID>
7951692

>  <cLogP>
3.22

>  <LogSW>
-4.97

>  <RB>
6

>  <tPSA>
52.6

>  <hDon>
1

>  <hAcc>
2

>  <MolName>
N-[1-benzyl-2-oxo-2-(4-phenyl-1-piperazinyl)ethyl]benzamide (non-preferred name)

$$$$
