
  Accelrys04102014222D 1   1.00000     0.00000     0

 25 29  0     0  0            999 V2000
   -0.0333   -0.2042    0.0000 C   0  0  0  0  0  0           0  0  0
   -1.9083   -0.2042    0.0000 C   0  0  0  0  0  0           0  0  0
   -0.0333    0.8500    0.0000 C   0  0  0  0  0  0           0  0  0
    0.8875   -0.7375    0.0000 C   0  0  0  0  0  0           0  0  0
    1.7875   -0.2042    0.0000 C   0  0  0  0  0  0           0  0  0
    0.8875    1.3833    0.0000 N   0  0  0  0  0  0           0  0  0
   -2.8208   -0.7375    0.0000 N   0  0  0  0  0  0           0  0  0
    1.7875    0.8500    0.0000 C   0  0  0  0  0  0           0  0  0
   -2.1333    0.8333    0.0000 N   0  0  0  0  0  0           0  0  0
   -0.9833   -0.7375    0.0000 S   0  0  0  0  0  0           0  0  0
    2.7042   -0.7375    0.0000 C   0  0  0  0  0  0           0  0  0
    2.7042    1.3833    0.0000 C   0  0  0  0  0  0           0  0  0
    3.6292   -0.2042    0.0000 C   0  0  0  0  0  0           0  0  0
    3.6292    0.8500    0.0000 C   0  0  0  0  0  0           0  0  0
   -3.6000   -0.0167    0.0000 C   0  0  0  0  0  0           0  0  0
   -3.1625    0.9500    0.0000 C   0  0  0  0  0  0           0  0  0
    4.6167   -0.5292    0.0000 O   0  0  0  0  0  0           0  0  0
    4.6167    1.1833    0.0000 O   0  0  0  0  0  0           0  0  0
   -0.9833    1.4125    0.0000 O   0  0  0  0  0  0           0  0  0
    5.2375    0.3500    0.0000 C   0  0  0  0  0  0           0  0  0
    0.8875   -1.8000    0.0000 C   0  0  0  0  0  0           0  0  0
   -4.6458   -0.1375    0.0000 C   0  0  0  0  0  0           0  0  0
   -3.7625    1.8000    0.0000 C   0  0  0  0  0  0           0  0  0
   -5.2708    0.7208    0.0000 C   0  0  0  0  0  0           0  0  0
   -4.8208    1.6833    0.0000 C   0  0  0  0  0  0           0  0  0
  2 10  1  0     0  0
  3  1  1  0     0  0
  4  1  2  0     0  0
  5  4  1  0     0  0
  6  3  1  0     0  0
  7  2  2  0     0  0
  8  5  1  0     0  0
  9  2  1  0     0  0
 10  1  1  0     0  0
 11  5  2  0     0  0
 12  8  2  0     0  0
 13 11  1  0     0  0
 14 13  2  0     0  0
 15  7  1  0     0  0
 16  9  1  0     0  0
 17 13  1  0     0  0
 18 14  1  0     0  0
 19  3  2  0     0  0
 20 17  1  0     0  0
 21  4  1  0     0  0
 22 15  1  0     0  0
 23 16  1  0     0  0
 24 22  2  0     0  0
 25 23  2  0     0  0
  8  6  1  0     0  0
 16 15  2  0     0  0
 12 14  1  0     0  0
 25 24  1  0     0  0
 20 18  1  0     0  0
M  END


>  <ID>
7665576

>  <cLogP>
3.60

>  <LogSW>
-4.78

>  <RB>
2

>  <tPSA>
80.0

>  <hDon>
2

>  <hAcc>
4

>  <MolName>
7-(1H-benzimidazol-2-ylthio)-8-methyl[1,3]dioxolo[4,5-g]quinolin-6(5H)-one

$$$$
