
  Accelrys04102014222D 1   1.00000     0.00000     0

 28 31  0     0  0            999 V2000
    2.5792    1.7500    0.0000 N   0  0  3  0  0  0           0  0  0
    3.0250    1.1458    0.0000 N   0  0  0  0  0  0           0  0  0
    3.7375    2.1250    0.0000 C   0  0  0  0  0  0           0  0  0
    3.0250    2.3583    0.0000 C   0  0  0  0  0  0           0  0  0
    3.7375    1.3750    0.0000 C   0  0  0  0  0  0           0  0  0
    4.3417    2.5625    0.0000 N   0  0  0  0  0  0           0  0  0
    5.0292    2.2583    0.0000 C   0  0  0  0  0  0           0  0  0
    1.8292    1.7500    0.0000 C   0  0  0  0  0  0           0  0  0
    8.2167    2.9708    0.0000 C   0  0  0  0  0  0           0  0  0
    7.6125    2.5333    0.0000 C   0  0  0  0  0  0           0  0  0
    5.1042    1.5125    0.0000 O   0  0  0  0  0  0           0  0  0
    8.1417    3.7208    0.0000 C   0  0  0  0  0  0           0  0  0
    7.4542    4.0167    0.0000 C   0  0  0  0  0  0           0  0  0
    6.9292    2.8375    0.0000 C   0  0  0  0  0  0           0  0  0
    6.3167    2.3958    0.0000 O   0  0  0  0  0  0           0  0  0
    2.7917    3.0708    0.0000 C   0  0  0  0  0  0           0  0  0
    5.6375    2.7042    0.0000 C   0  0  0  0  0  0           0  0  0
    4.3417    0.9333    0.0000 C   0  0  0  0  0  0           0  0  0
    6.8500    3.5833    0.0000 C   0  0  0  0  0  0           0  0  0
    8.9042    2.6708    0.0000 C   0  0  0  0  0  0           0  0  0
    1.4542    2.3958    0.0000 C   0  0  0  0  0  0           0  0  0
    1.4542    1.1000    0.0000 C   0  0  0  0  0  0           0  0  0
    8.7417    4.1542    0.0000 C   0  0  0  0  0  0           0  0  0
    9.5125    3.1083    0.0000 C   0  0  0  0  0  0           0  0  0
    0.7042    1.1000    0.0000 C   0  0  0  0  0  0           0  0  0
    0.7042    2.3958    0.0000 C   0  0  0  0  0  0           0  0  0
    9.4292    3.8583    0.0000 C   0  0  0  0  0  0           0  0  0
    0.3292    1.7500    0.0000 C   0  0  0  0  0  0           0  0  0
  2  1  1  0     0  0
  3  4  2  0     0  0
  4  1  1  0     0  0
  5  2  2  0     0  0
  6  3  1  0     0  0
  7  6  1  0     0  0
  8  1  1  0     0  0
  9 10  1  0     0  0
 10 14  2  0     0  0
 11  7  2  0     0  0
 12 13  1  0     0  0
 13 19  2  0     0  0
 14 15  1  0     0  0
 15 17  1  0     0  0
 16  4  1  0     0  0
 17  7  1  0     0  0
 18  5  1  0     0  0
 19 14  1  0     0  0
 20  9  2  0     0  0
 21  8  2  0     0  0
 22  8  1  0     0  0
 23 12  2  0     0  0
 24 20  1  0     0  0
 25 22  2  0     0  0
 26 21  1  0     0  0
 27 23  1  0     0  0
 28 25  1  0     0  0
  3  5  1  0     0  0
 26 28  2  0     0  0
 12  9  1  0     0  0
 24 27  2  0     0  0
M  END


>  <ID>
7888659

>  <cLogP>
3.55

>  <LogSW>
-4.94

>  <RB>
5

>  <tPSA>
56.2

>  <hDon>
1

>  <hAcc>
3

>  <MolName>
N-(3,5-dimethyl-1-phenyl-1H-pyrazol-4-yl)-2-(2-naphthyloxy)acetamide

$$$$
