
  Accelrys04102014222D 1   1.00000     0.00000     0

 22 24  0     0  0            999 V2000
    4.5167    1.3833    0.0000 C   0  0  0  0  0  0           0  0  0
    5.2292    1.1458    0.0000 N   0  0  0  0  0  0           0  0  0
    5.6750    1.7583    0.0000 C   0  0  0  0  0  0           0  0  0
    3.9125    0.9375    0.0000 N   0  0  0  0  0  0           0  0  0
    6.4250    1.7583    0.0000 C   0  0  0  0  0  0           0  0  0
    4.5167    2.1333    0.0000 S   0  0  0  0  0  0           0  0  0
    3.2292    1.2458    0.0000 C   0  0  0  0  0  0           0  0  0
    5.2292    2.3583    0.0000 C   0  0  0  0  0  0           0  0  0
    6.8000    1.1083    0.0000 C   0  0  0  0  0  0           0  0  0
    2.6167    0.8000    0.0000 C   0  0  0  0  0  0           0  0  0
    1.9375    1.1083    0.0000 C   0  0  0  0  0  0           0  0  0
    1.7792    1.8458    0.0000 S   0  0  0  0  0  0           0  0  0
    7.5500    1.1083    0.0000 C   0  0  0  0  0  0           0  0  0
    6.8000    2.4083    0.0000 C   0  0  0  0  0  0           0  0  0
    1.0292    1.9208    0.0000 C   0  0  0  0  0  0           0  0  0
    3.1500    1.9875    0.0000 O   0  0  0  0  0  0           0  0  0
    1.2875    0.7333    0.0000 C   0  0  0  0  0  0           0  0  0
    0.7292    1.2333    0.0000 C   0  0  0  0  0  0           0  0  0
    7.9250    1.7583    0.0000 C   0  0  0  0  0  0           0  0  0
    6.4250    0.4583    0.0000 F   0  0  0  0  0  0           0  0  0
    7.5500    2.4083    0.0000 C   0  0  0  0  0  0           0  0  0
    8.6750    1.7583    0.0000 F   0  0  0  0  0  0           0  0  0
  2  1  2  0     0  0
  3  2  1  0     0  0
  4  1  1  0     0  0
  5  3  1  0     0  0
  6  1  1  0     0  0
  7  4  1  0     0  0
  8  6  1  0     0  0
  9  5  1  0     0  0
 10  7  1  0     0  0
 11 10  1  0     0  0
 12 11  1  0     0  0
 13  9  2  0     0  0
 14  5  2  0     0  0
 15 12  1  0     0  0
 16  7  2  0     0  0
 17 11  2  0     0  0
 18 17  1  0     0  0
 19 21  2  0     0  0
 20  9  1  0     0  0
 21 14  1  0     0  0
 22 19  1  0     0  0
  8  3  2  0     0  0
 18 15  2  0     0  0
 19 13  1  0     0  0
M  END


>  <ID>
7944514

>  <cLogP>
3.98

>  <LogSW>
-5.05

>  <RB>
4

>  <tPSA>
42.0

>  <hDon>
1

>  <hAcc>
2

>  <MolName>
N-[4-(2,4-difluorophenyl)-1,3-thiazol-2-yl]-2-(2-thienyl)acetamide

$$$$
