
  Accelrys04102014222D 1   1.00000     0.00000     0

 25 27  0     0  0            999 V2000
    7.5750    1.9375    0.0000 C   0  0  0  0  0  0           0  0  0
    6.9250    1.5625    0.0000 C   0  0  0  0  0  0           0  0  0
    8.2542    1.6333    0.0000 C   0  0  0  0  0  0           0  0  0
    7.6542    2.6833    0.0000 C   0  0  0  0  0  0           0  0  0
    8.3875    2.8458    0.0000 S   0  0  0  0  0  0           0  0  0
    3.6750    1.9375    0.0000 C   0  0  0  0  0  0           0  0  0
    6.2750    1.9375    0.0000 N   0  0  0  0  0  0           0  0  0
    8.7625    2.1958    0.0000 C   0  0  0  0  0  0           0  0  0
    3.0292    1.5625    0.0000 N   0  0  0  0  0  0           0  0  0
    4.3250    1.5625    0.0000 C   0  0  0  0  0  0           0  0  0
    5.6250    1.5625    0.0000 C   0  0  0  0  0  0           0  0  0
    6.9250    0.8125    0.0000 O   0  0  0  0  0  0           0  0  0
    4.9750    1.9375    0.0000 C   0  0  0  0  0  0           0  0  0
    3.6750    2.6875    0.0000 O   0  0  0  0  0  0           0  0  0
    2.3792    1.9375    0.0000 C   0  0  0  0  0  0           0  0  0
    1.7292    1.5625    0.0000 C   0  0  0  0  0  0           0  0  0
    4.3250    0.8125    0.0000 C   0  0  0  0  0  0           0  0  0
    4.9750    0.4375    0.0000 C   0  0  0  0  0  0           0  0  0
    9.5042    2.1125    0.0000 C   0  0  0  0  0  0           0  0  0
    5.6250    0.8125    0.0000 C   0  0  0  0  0  0           0  0  0
    1.0792    1.9375    0.0000 C   0  0  0  0  0  0           0  0  0
    1.7292    0.8125    0.0000 C   0  0  0  0  0  0           0  0  0
    1.0792    0.4375    0.0000 C   0  0  0  0  0  0           0  0  0
    0.4292    1.5625    0.0000 C   0  0  0  0  0  0           0  0  0
    0.4292    0.8125    0.0000 C   0  0  0  0  0  0           0  0  0
  2  1  1  0     0  0
  3  1  1  0     0  0
  4  1  2  0     0  0
  5  4  1  0     0  0
  6 10  1  0     0  0
  7  2  1  0     0  0
  8  3  2  0     0  0
  9  6  1  0     0  0
 10 13  2  0     0  0
 11  7  1  0     0  0
 12  2  2  0     0  0
 13 11  1  0     0  0
 14  6  2  0     0  0
 15  9  1  0     0  0
 16 15  1  0     0  0
 17 18  2  0     0  0
 18 20  1  0     0  0
 19  8  1  0     0  0
 20 11  2  0     0  0
 21 16  1  0     0  0
 22 16  2  0     0  0
 23 22  1  0     0  0
 24 21  2  0     0  0
 25 23  2  0     0  0
  8  5  1  0     0  0
 17 10  1  0     0  0
 24 25  1  0     0  0
M  END


>  <ID>
7946700

>  <cLogP>
3.88

>  <LogSW>
-5.06

>  <RB>
5

>  <tPSA>
58.2

>  <hDon>
2

>  <hAcc>
2

>  <MolName>
N-{3-[(benzylamino)carbonyl]phenyl}-5-methyl-3-thiophenecarboxamide

$$$$
