
  Accelrys04102014222D 1   1.00000     0.00000     0

 24 26  0     0  0            999 V2000
    1.6625    2.9208    0.0000 N   0  0  3  0  0  0           0  0  0
    1.0542    3.3583    0.0000 C   0  0  0  0  0  0           0  0  0
    0.4417    2.9208    0.0000 O   0  0  0  0  0  0           0  0  0
    1.4292    2.2083    0.0000 C   0  0  0  0  0  0           0  0  0
    0.6792    2.2083    0.0000 C   0  0  0  0  0  0           0  0  0
    4.2042    2.3750    0.0000 C   0  0  0  0  0  0           0  0  0
    2.9292    2.6458    0.0000 C   0  0  0  0  0  0           0  0  0
    3.6417    2.8833    0.0000 N   0  0  0  0  0  0           0  0  0
    2.3750    3.1458    0.0000 C   0  0  0  0  0  0           0  0  0
    4.0417    1.6458    0.0000 C   0  0  0  0  0  0           0  0  0
    1.0542    4.1042    0.0000 O   0  0  0  0  0  0           0  0  0
    4.9167    2.6083    0.0000 C   0  0  0  0  0  0           0  0  0
    2.7750    1.9125    0.0000 O   0  0  0  0  0  0           0  0  0
    5.4750    2.1083    0.0000 C   0  0  0  0  0  0           0  0  0
    4.6042    1.1458    0.0000 C   0  0  0  0  0  0           0  0  0
    5.3167    1.3708    0.0000 C   0  0  0  0  0  0           0  0  0
    5.0667    3.3458    0.0000 O   0  0  0  0  0  0           0  0  0
    1.8042    1.5583    0.0000 C   0  0  0  0  0  0           0  0  0
    4.4417    0.4083    0.0000 O   0  0  0  0  0  0           0  0  0
    0.3042    1.5583    0.0000 C   0  0  0  0  0  0           0  0  0
    5.7792    3.5708    0.0000 C   0  0  0  0  0  0           0  0  0
    5.0042   -0.0917    0.0000 C   0  0  0  0  0  0           0  0  0
    1.4292    0.9083    0.0000 C   0  0  0  0  0  0           0  0  0
    0.6792    0.9083    0.0000 C   0  0  0  0  0  0           0  0  0
  2  1  1  0     0  0
  3  2  1  0     0  0
  4  1  1  0     0  0
  5  4  2  0     0  0
  6  8  1  0     0  0
  7  9  1  0     0  0
  8  7  1  0     0  0
  9  1  1  0     0  0
 10  6  1  0     0  0
 11  2  2  0     0  0
 12  6  2  0     0  0
 13  7  2  0     0  0
 14 12  1  0     0  0
 15 10  2  0     0  0
 16 14  2  0     0  0
 17 12  1  0     0  0
 18  4  1  0     0  0
 19 15  1  0     0  0
 20  5  1  0     0  0
 21 17  1  0     0  0
 22 19  1  0     0  0
 23 18  2  0     0  0
 24 23  1  0     0  0
  3  5  1  0     0  0
 20 24  2  0     0  0
 15 16  1  0     0  0
M  END


>  <ID>
7914488

>  <cLogP>
1.69

>  <LogSW>
-3.04

>  <RB>
3

>  <tPSA>
82.7

>  <hDon>
1

>  <hAcc>
5

>  <MolName>
N-(2,5-dimethoxyphenyl)-2-(2-oxo-1,3-benzoxazol-3(2H)-yl)acetamide

$$$$
