
  Accelrys04102014222D 1   1.00000     0.00000     0

 28 30  0     0  0            999 V2000
   -1.8125    6.5417    0.0000 C   0  0  0  0  0  0           0  0  0
   -1.0708    6.4667    0.0000 C   0  0  0  0  0  0           0  0  0
   -3.5500    5.5875    0.0000 C   0  0  0  0  0  0           0  0  0
   -1.9708    7.2792    0.0000 S   0  0  0  0  0  0           0  0  0
   -0.7625    7.1500    0.0000 C   0  0  0  0  0  0           0  0  0
   -2.3208    5.9833    0.0000 N   0  0  0  0  0  0           0  0  0
   -1.3208    7.6542    0.0000 C   0  0  0  0  0  0           0  0  0
   -3.0500    6.1417    0.0000 C   0  0  0  0  0  0           0  0  0
   -0.6958    5.8167    0.0000 C   0  0  0  0  0  0           0  0  0
   -4.2958    5.6583    0.0000 C   0  0  0  0  0  0           0  0  0
   -3.3958    4.8542    0.0000 C   0  0  0  0  0  0           0  0  0
   -4.0458    4.4792    0.0000 S   0  0  0  0  0  0           0  0  0
   -4.6000    4.9792    0.0000 C   0  0  0  0  0  0           0  0  0
    0.0542    5.8167    0.0000 N   0  0  0  0  0  0           0  0  0
   -3.2833    6.8542    0.0000 O   0  0  0  0  0  0           0  0  0
   -1.0708    5.1667    0.0000 O   0  0  0  0  0  0           0  0  0
    2.3042    4.5167    0.0000 N   0  0  0  0  0  0           0  0  0
    1.1792    5.1667    0.0000 C   0  0  0  0  0  0           0  0  0
    0.4292    5.1667    0.0000 C   0  0  0  0  0  0           0  0  0
   -0.0333    7.3042    0.0000 C   0  0  0  0  0  0           0  0  0
   -1.2458    8.4000    0.0000 C   0  0  0  0  0  0           0  0  0
    1.5542    4.5167    0.0000 C   0  0  0  0  0  0           0  0  0
   -5.3333    4.8250    0.0000 C   0  0  0  0  0  0           0  0  0
    2.6792    5.1667    0.0000 C   0  0  0  0  0  0           0  0  0
    1.5542    5.8167    0.0000 C   0  0  0  0  0  0           0  0  0
   -5.5708    4.1042    0.0000 C   0  0  0  0  0  0           0  0  0
    2.3042    5.8167    0.0000 C   0  0  0  0  0  0           0  0  0
   -6.2917    3.9583    0.0000 C   0  0  0  0  0  0           0  0  0
  2  1  2  0     0  0
  3  8  1  0     0  0
  4  1  1  0     0  0
  5  2  1  0     0  0
  6  1  1  0     0  0
  7  4  1  0     0  0
  8  6  1  0     0  0
  9  2  1  0     0  0
 10  3  1  0     0  0
 11  3  2  0     0  0
 12 11  1  0     0  0
 13 10  2  0     0  0
 14  9  1  0     0  0
 15  8  2  0     0  0
 16  9  2  0     0  0
 17 22  2  0     0  0
 18 19  1  0     0  0
 19 14  1  0     0  0
 20  5  1  0     0  0
 21  7  1  0     0  0
 22 18  1  0     0  0
 23 13  1  0     0  0
 24 27  2  0     0  0
 25 18  2  0     0  0
 26 23  1  0     0  0
 27 25  1  0     0  0
 28 26  1  0     0  0
  7  5  2  0     0  0
 13 12  1  0     0  0
 24 17  1  0     0  0
M  END


>  <ID>
7946204

>  <cLogP>
4.18

>  <LogSW>
-4.48

>  <RB>
5

>  <tPSA>
71.1

>  <hDon>
2

>  <hAcc>
3

>  <MolName>
4,5-dimethyl-2-{[(5-propyl-3-thienyl)carbonyl]amino}-N-(3-pyridinylmethyl)-3-thiophenecarboxamide

$$$$
