
  Accelrys04102014222D 1   1.00000     0.00000     0

 15 16  0     0  0            999 V2000
    4.3792    2.3833    0.0000 S   0  0  0  0  0  0           0  0  0
    3.9375    1.7750    0.0000 C   0  0  0  0  0  0           0  0  0
    5.0917    2.1500    0.0000 C   0  0  0  0  0  0           0  0  0
    4.3792    1.1708    0.0000 C   0  0  0  0  0  0           0  0  0
    5.0917    1.4000    0.0000 C   0  0  0  0  0  0           0  0  0
    2.8125    1.1250    0.0000 N   0  0  0  0  0  0           0  0  0
    3.1875    1.7750    0.0000 C   0  0  0  0  0  0           0  0  0
    2.0625    1.1250    0.0000 C   0  0  0  0  0  0           0  0  0
    0.5625    1.1250    0.0000 C   0  0  0  0  0  0           0  0  0
    1.6875    0.4792    0.0000 C   0  0  0  0  0  0           0  0  0
    1.6875    1.7750    0.0000 C   0  0  0  0  0  0           0  0  0
    0.9375    1.7750    0.0000 C   0  0  0  0  0  0           0  0  0
    0.9375    0.4792    0.0000 C   0  0  0  0  0  0           0  0  0
   -0.1875    1.1250    0.0000 O   0  0  0  0  0  0           0  0  0
    5.7000    2.5917    0.0000 C   0  0  0  0  0  0           0  0  0
  2  1  1  0     0  0
  3  1  1  0     0  0
  4  2  2  0     0  0
  5  3  2  0     0  0
  6  7  1  0     0  0
  7  2  1  0     0  0
  8  6  1  0     0  0
  9 12  2  0     0  0
 10  8  1  0     0  0
 11  8  2  0     0  0
 12 11  1  0     0  0
 13 10  2  0     0  0
 14  9  1  0     0  0
 15  3  1  0     0  0
  5  4  1  0     0  0
 13  9  1  0     0  0
M  END


>  <ID>
7938158

>  <cLogP>
2.57

>  <LogSW>
-2.99

>  <RB>
3

>  <tPSA>
32.3

>  <hDon>
2

>  <hAcc>
1

>  <MolName>
4-{[(5-methyl-2-thienyl)methyl]amino}phenol

$$$$
