
  Accelrys04102014222D 1   1.00000     0.00000     0

 23 25  0     0  0            999 V2000
    1.7000    1.2625    0.0000 S   0  0  3  0  0  0           0  0  0
    5.8250    1.9125    0.0000 C   0  0  0  0  0  0           0  0  0
    5.0750    1.9125    0.0000 C   0  0  0  0  0  0           0  0  0
    1.5042    1.9875    0.0000 N   0  0  3  0  0  0           0  0  0
    6.2667    1.3083    0.0000 C   0  0  0  0  0  0           0  0  0
    6.2667    2.5208    0.0000 C   0  0  0  0  0  0           0  0  0
    6.9792    2.2875    0.0000 S   0  0  0  0  0  0           0  0  0
    2.4458    1.2625    0.0000 C   0  0  0  0  0  0           0  0  0
    4.7000    1.2625    0.0000 N   0  0  0  0  0  0           0  0  0
    6.9792    1.5375    0.0000 C   0  0  0  0  0  0           0  0  0
    0.9625    1.1333    0.0000 O   0  0  0  0  0  0           0  0  0
    1.7667    0.5208    0.0000 O   0  0  0  0  0  0           0  0  0
    4.7000    2.5625    0.0000 O   0  0  0  0  0  0           0  0  0
    2.8250    0.6125    0.0000 C   0  0  0  0  0  0           0  0  0
    2.8250    1.9125    0.0000 C   0  0  0  0  0  0           0  0  0
    3.9500    1.2625    0.0000 C   0  0  0  0  0  0           0  0  0
    3.5750    0.6125    0.0000 C   0  0  0  0  0  0           0  0  0
    3.5750    1.9125    0.0000 C   0  0  0  0  0  0           0  0  0
    1.9792    2.5708    0.0000 C   0  0  0  0  0  0           0  0  0
    0.8042    2.2583    0.0000 C   0  0  0  0  0  0           0  0  0
    7.5792    1.0958    0.0000 C   0  0  0  0  0  0           0  0  0
    1.5667    3.2042    0.0000 C   0  0  0  0  0  0           0  0  0
    0.8417    3.0083    0.0000 C   0  0  0  0  0  0           0  0  0
  2  3  1  0     0  0
  3  9  1  0     0  0
  4  1  1  0     0  0
  5  2  1  0     0  0
  6  2  2  0     0  0
  7  6  1  0     0  0
  8  1  1  0     0  0
  9 16  1  0     0  0
 10  5  2  0     0  0
 11  1  2  0     0  0
 12  1  2  0     0  0
 13  3  2  0     0  0
 14  8  2  0     0  0
 15  8  1  0     0  0
 16 18  1  0     0  0
 17 14  1  0     0  0
 18 15  2  0     0  0
 19  4  1  0     0  0
 20  4  1  0     0  0
 21 10  1  0     0  0
 22 19  1  0     0  0
 23 20  1  0     0  0
 16 17  2  0     0  0
 22 23  1  0     0  0
 10  7  1  0     0  0
M  END


>  <ID>
7945787

>  <cLogP>
3.18

>  <LogSW>
-4.47

>  <RB>
3

>  <tPSA>
66.5

>  <hDon>
1

>  <hAcc>
4

>  <MolName>
5-methyl-N-[4-(1-pyrrolidinylsulfonyl)phenyl]-3-thiophenecarboxamide

$$$$
