
  Accelrys04102014222D 1   1.00000     0.00000     0

 22 22  0     0  0            999 V2000
   -0.6625    1.0333    0.0000 C   0  0  0  0  0  0           0  0  0
    0.1500    0.5625    0.0000 N   0  0  0  0  0  0           0  0  0
   -1.2625    0.5500    0.0000 N   0  0  0  0  0  0           0  0  0
    0.1500   -0.3792    0.0000 C   0  0  0  0  0  0           0  0  0
   -1.4708   -0.3792    0.0000 C   0  0  0  0  0  0           0  0  0
   -0.6625   -0.8500    0.0000 N   0  0  0  0  0  0           0  0  0
   -0.6625    1.9583    0.0000 N   0  0  3  0  0  0           0  0  0
    0.1292    2.4125    0.0000 C   0  0  0  0  0  0           0  0  0
    0.9167    2.8708    0.0000 N   0  0  0  0  0  0           0  0  0
   -1.4500    2.4125    0.0000 C   0  0  0  0  0  0           0  0  0
    0.9542   -0.8500    0.0000 N   0  0  0  0  0  0           0  0  0
   -2.2833   -0.8500    0.0000 N   0  0  0  0  0  0           0  0  0
   -2.2500    1.9583    0.0000 C   0  0  0  0  0  0           0  0  0
   -3.0500    2.4208    0.0000 O   0  0  0  0  0  0           0  0  0
   -2.2500    1.0333    0.0000 O   0  0  0  0  0  0           0  0  0
    1.7542   -0.3875    0.0000 C   0  0  3  0  0  0           0  0  0
   -3.1000   -0.4000    0.0000 C   0  0  3  0  0  0           0  0  0
   -3.4125    1.5000    0.0000 C   0  0  0  0  0  0           0  0  0
    1.7542    0.5458    0.0000 C   0  0  0  0  0  0           0  0  0
    2.5542   -0.8542    0.0000 C   0  0  0  0  0  0           0  0  0
   -3.8958   -0.8792    0.0000 C   0  0  0  0  0  0           0  0  0
   -3.5458    0.2708    0.0000 C   0  0  0  0  0  0           0  0  0
  2  1  1  0     0  0
  3  1  2  0     0  0
  4  2  2  0     0  0
  5  3  1  0     0  0
  6  5  2  0     0  0
  7  1  1  0     0  0
  8  7  1  0     0  0
  9  8  3  0     0  0
 10  7  1  0     0  0
 11  4  1  0     0  0
 12  5  1  0     0  0
 13 10  1  0     0  0
 14 13  2  0     0  0
 15 13  1  0     0  0
 16 11  1  0     0  0
 17 12  1  0     0  0
 18 15  1  0     0  0
 19 16  1  0     0  0
 20 16  1  0     0  0
 21 17  1  0     0  0
 22 17  1  0     0  0
  4  6  1  0     0  0
M  END


>  <ID>
5705213

>  <cLogP>
2.16

>  <LogSW>
-3.29

>  <RB>
5

>  <tPSA>
116.1

>  <hDon>
2

>  <hAcc>
6

>  <MolName>
methyl N-[4,6-bis(isopropylamino)-1,3,5-triazin-2-yl]-N-cyanoglycinate

$$$$
