
  Accelrys04102014222D 1   1.00000     0.00000     0

 26 28  0     0  0            999 V2000
    3.2375   -0.5000    0.0000 C   0  0  0  0  0  0           0  0  0
    6.5750   -3.3292    0.0000 C   0  0  0  0  0  0           0  0  0
    2.8167    0.2208    0.0000 N   0  0  0  0  0  0           0  0  0
    4.0625   -0.4875    0.0000 C   0  0  0  0  0  0           0  0  0
    6.9917   -4.0417    0.0000 C   0  0  0  0  0  0           0  0  0
    5.7500   -3.3417    0.0000 C   0  0  0  0  0  0           0  0  0
    5.3292   -2.6292    0.0000 O   0  0  0  0  0  0           0  0  0
    2.8292   -1.2250    0.0000 O   0  0  0  0  0  0           0  0  0
    4.4792   -1.1917    0.0000 C   0  0  0  0  0  0           0  0  0
    2.4917    2.5208    0.0000 N   0  0  0  0  0  0           0  0  0
    5.3417   -4.0667    0.0000 C   0  0  0  0  0  0           0  0  0
    6.6000   -4.7667    0.0000 C   0  0  0  0  0  0           0  0  0
    1.9167    1.2083    0.0000 C   0  0  0  0  0  0           0  0  0
    2.0042    0.3875    0.0000 C   0  0  0  0  0  0           0  0  0
    6.9750   -2.6042    0.0000 Cl  0  0  0  0  0  0           0  0  0
    5.3125   -1.1875    0.0000 C   0  0  0  0  0  0           0  0  0
    5.7375   -1.9125    0.0000 C   0  0  0  0  0  0           0  0  0
    5.7667   -4.7792    0.0000 C   0  0  0  0  0  0           0  0  0
    7.0250   -5.4792    0.0000 Cl  0  0  0  0  0  0           0  0  0
    2.5792    1.6958    0.0000 C   0  0  0  0  0  0           0  0  0
    4.4667    0.2375    0.0000 C   0  0  0  0  0  0           0  0  0
    5.2917    0.2500    0.0000 C   0  0  0  0  0  0           0  0  0
    1.7375    2.8458    0.0000 C   0  0  0  0  0  0           0  0  0
    1.1667    1.5333    0.0000 C   0  0  0  0  0  0           0  0  0
    5.7250   -0.4750    0.0000 C   0  0  0  0  0  0           0  0  0
    1.0667    2.3500    0.0000 C   0  0  0  0  0  0           0  0  0
  2  6  2  0     0  0
  3  1  1  0     0  0
  4  1  1  0     0  0
  5  2  1  0     0  0
  6  7  1  0     0  0
  7 17  1  0     0  0
  8  1  2  0     0  0
  9  4  2  0     0  0
 10 20  1  0     0  0
 11  6  1  0     0  0
 12 18  1  0     0  0
 13 14  1  0     0  0
 14  3  1  0     0  0
 15  2  1  0     0  0
 16  9  1  0     0  0
 17 16  1  0     0  0
 18 11  2  0     0  0
 19 12  1  0     0  0
 20 13  2  0     0  0
 21  4  1  0     0  0
 22 21  2  0     0  0
 23 26  1  0     0  0
 24 13  1  0     0  0
 25 22  1  0     0  0
 26 24  2  0     0  0
 16 25  2  0     0  0
 10 23  2  0     0  0
  5 12  2  0     0  0
M  END


>  <ID>
7557708

>  <cLogP>
4.40

>  <LogSW>
-4.82

>  <RB>
6

>  <tPSA>
51.2

>  <hDon>
1

>  <hAcc>
3

>  <MolName>
3-[(2,4-dichlorophenoxy)methyl]-N-(3-pyridinylmethyl)benzamide

$$$$
