
  Accelrys04102014222D 1   1.00000     0.00000     0

 20 21  0     0  0            999 V2000
    2.0000    3.5792    0.0000 C   0  0  0  0  0  0           0  0  0
    1.2500    3.5792    0.0000 C   0  0  0  0  0  0           0  0  0
   -0.4583    4.4917    0.0000 C   0  0  0  0  0  0           0  0  0
    2.4375    4.1708    0.0000 C   0  0  0  0  0  0           0  0  0
    0.8042    4.1708    0.0000 N   0  0  0  0  0  0           0  0  0
    3.1792    4.0917    0.0000 N   0  0  0  0  0  0           0  0  0
    0.0875    3.9792    0.0000 C   0  0  0  0  0  0           0  0  0
    3.5125    4.7667    0.0000 C   0  0  0  0  0  0           0  0  0
   -1.1958    4.3542    0.0000 C   0  0  0  0  0  0           0  0  0
   -0.3500    5.2292    0.0000 C   0  0  0  0  0  0           0  0  0
   -1.0208    5.5625    0.0000 S   0  0  0  0  0  0           0  0  0
    1.0167    2.8583    0.0000 S   0  0  0  0  0  0           0  0  0
   -1.5458    5.0167    0.0000 C   0  0  0  0  0  0           0  0  0
    2.2292    2.8583    0.0000 C   0  0  0  0  0  0           0  0  0
    1.6250    2.4208    0.0000 C   0  0  0  0  0  0           0  0  0
    2.1292    4.8583    0.0000 O   0  0  0  0  0  0           0  0  0
   -0.0958    3.2458    0.0000 O   0  0  0  0  0  0           0  0  0
    4.2625    4.8250    0.0000 O   0  0  0  0  0  0           0  0  0
    3.0917    5.3917    0.0000 N   0  0  0  0  0  0           0  0  0
   -2.2875    5.1250    0.0000 C   0  0  0  0  0  0           0  0  0
  2  1  2  0     0  0
  3  7  1  0     0  0
  4  1  1  0     0  0
  5  2  1  0     0  0
  6  4  1  0     0  0
  7  5  1  0     0  0
  8  6  1  0     0  0
  9  3  1  0     0  0
 10  3  2  0     0  0
 11 10  1  0     0  0
 12  2  1  0     0  0
 13  9  2  0     0  0
 14  1  1  0     0  0
 15 14  2  0     0  0
 16  4  2  0     0  0
 17  7  2  0     0  0
 18  8  2  0     0  0
 19  8  1  0     0  0
 20 13  1  0     0  0
 15 12  1  0     0  0
 13 11  1  0     0  0
M  END


>  <ID>
7948109

>  <cLogP>
2.20

>  <LogSW>
-3.33

>  <RB>
3

>  <tPSA>
101.3

>  <hDon>
3

>  <hAcc>
3

>  <MolName>
N-(aminocarbonyl)-2-{[(5-methyl-3-thienyl)carbonyl]amino}-3-thiophenecarboxamide

$$$$
