
  Accelrys04102014222D 1   1.00000     0.00000     0

 29 33  0     0  0            999 V2000
    4.4417   -0.7417    0.0000 C   0  0  0  0  0  0           0  0  0
    4.4417   -1.4917    0.0000 C   0  0  0  0  0  0           0  0  0
    5.0917   -0.3750    0.0000 C   0  0  0  0  0  0           0  0  0
    5.0917   -1.8750    0.0000 O   0  0  0  0  0  0           0  0  0
    1.1917   -0.3667    0.0000 C   0  0  0  0  0  0           0  0  0
    3.7917   -0.3667    0.0000 C   0  0  0  0  0  0           0  0  0
    5.7417   -0.7500    0.0000 C   0  0  0  0  0  0           0  0  0
    1.8417   -0.7417    0.0000 N   0  0  0  0  0  0           0  0  0
    0.5417   -0.7417    0.0000 C   0  0  0  0  0  0           0  0  0
    5.7417   -1.5000    0.0000 C   0  0  0  0  0  0           0  0  0
   -0.7583   -0.7417    0.0000 C   0  0  0  0  0  0           0  0  0
   -0.1083   -0.3667    0.0000 C   0  0  0  0  0  0           0  0  0
   -0.7583   -1.5000    0.0000 C   0  0  0  0  0  0           0  0  0
   -1.4750   -0.5125    0.0000 O   0  0  0  0  0  0           0  0  0
    3.7917   -1.8667    0.0000 O   0  0  0  0  0  0           0  0  0
   -1.4750   -1.7292    0.0000 O   0  0  0  0  0  0           0  0  0
    3.1417   -0.7417    0.0000 C   0  0  0  0  0  0           0  0  0
   -1.9208   -1.1167    0.0000 C   0  0  0  0  0  0           0  0  0
    2.4917   -0.3667    0.0000 C   0  0  0  0  0  0           0  0  0
    1.1917    0.3833    0.0000 O   0  0  0  0  0  0           0  0  0
    0.5417   -1.5000    0.0000 C   0  0  0  0  0  0           0  0  0
   -0.1083   -1.8750    0.0000 C   0  0  0  0  0  0           0  0  0
    3.7917    0.3833    0.0000 C   0  0  0  0  0  0           0  0  0
    3.1417    0.7583    0.0000 C   0  0  0  0  0  0           0  0  0
    6.3917   -0.3750    0.0000 C   0  0  0  0  0  0           0  0  0
    6.3917   -1.8750    0.0000 C   0  0  0  0  0  0           0  0  0
    2.4917    0.3833    0.0000 C   0  0  0  0  0  0           0  0  0
    7.0417   -0.7500    0.0000 C   0  0  0  0  0  0           0  0  0
    7.0417   -1.5000    0.0000 C   0  0  0  0  0  0           0  0  0
  2  1  1  0     0  0
  3  1  2  0     0  0
  4  2  1  0     0  0
  5  8  1  0     0  0
  6  1  1  0     0  0
  7  3  1  0     0  0
  8 19  1  0     0  0
  9  5  1  0     0  0
 10  7  2  0     0  0
 11 12  2  0     0  0
 12  9  1  0     0  0
 13 22  2  0     0  0
 14 11  1  0     0  0
 15  2  2  0     0  0
 16 13  1  0     0  0
 17  6  2  0     0  0
 18 14  1  0     0  0
 19 17  1  0     0  0
 20  5  2  0     0  0
 21  9  2  0     0  0
 22 21  1  0     0  0
 23  6  1  0     0  0
 24 23  2  0     0  0
 25  7  1  0     0  0
 26 10  1  0     0  0
 27 24  1  0     0  0
 28 25  2  0     0  0
 29 28  1  0     0  0
 10  4  1  0     0  0
 27 19  2  0     0  0
 26 29  2  0     0  0
 13 11  1  0     0  0
 16 18  1  0     0  0
M  END


>  <ID>
7786009

>  <cLogP>
3.86

>  <LogSW>
-5.31

>  <RB>
3

>  <tPSA>
77.8

>  <hDon>
1

>  <hAcc>
5

>  <MolName>
N-[3-(2-oxo-2H-chromen-3-yl)phenyl]-1,3-benzodioxole-5-carboxamide

$$$$
