
  Accelrys04102014222D 1   1.00000     0.00000     0

 28 30  0     0  0            999 V2000
    4.8875    2.8625    0.0000 S   0  0  3  0  0  0           0  0  0
    5.6875    3.3125    0.0000 N   0  0  0  0  0  0           0  0  0
    4.0875    2.3833    0.0000 C   0  0  0  0  0  0           0  0  0
    1.7292    0.0708    0.0000 C   0  0  0  0  0  0           0  0  0
    4.4292    3.6458    0.0000 O   0  0  0  0  0  0           0  0  0
    5.3667    2.0500    0.0000 O   0  0  0  0  0  0           0  0  0
    1.7292    1.0000    0.0000 N   0  0  0  0  0  0           0  0  0
    2.5042   -0.3792    0.0000 O   0  0  0  0  0  0           0  0  0
    3.3042    2.8333    0.0000 C   0  0  0  0  0  0           0  0  0
    4.0875    1.4833    0.0000 C   0  0  0  0  0  0           0  0  0
    5.6875    4.2292    0.0000 C   0  0  0  0  0  0           0  0  0
    0.9500   -0.3792    0.0000 C   0  0  0  0  0  0           0  0  0
    2.5292    1.4833    0.0000 C   0  0  0  0  0  0           0  0  0
    0.9500   -1.2792    0.0000 C   0  0  0  0  0  0           0  0  0
    0.9500   -3.0792    0.0000 C   0  0  0  0  0  0           0  0  0
    2.5292    2.3833    0.0000 C   0  0  0  0  0  0           0  0  0
    3.3042    1.0333    0.0000 C   0  0  0  0  0  0           0  0  0
    0.9500   -4.0042    0.0000 F   0  0  0  0  0  0           0  0  0
    5.6875    6.0292    0.0000 C   0  0  0  0  0  0           0  0  0
    4.9042    4.6875    0.0000 C   0  0  0  0  0  0           0  0  0
    6.4667    4.6875    0.0000 C   0  0  0  0  0  0           0  0  0
    0.1667   -2.6292    0.0000 C   0  0  0  0  0  0           0  0  0
    1.7292   -2.6292    0.0000 C   0  0  0  0  0  0           0  0  0
    0.1667   -1.7292    0.0000 C   0  0  0  0  0  0           0  0  0
    1.7292   -1.7292    0.0000 C   0  0  0  0  0  0           0  0  0
    6.4667    5.5875    0.0000 C   0  0  0  0  0  0           0  0  0
    4.9042    5.5875    0.0000 C   0  0  0  0  0  0           0  0  0
    5.6875    6.9667    0.0000 C   0  0  0  0  0  0           0  0  0
  2  1  1  0     0  0
  3  1  1  0     0  0
  4  7  1  0     0  0
  5  1  2  0     0  0
  6  1  2  0     0  0
  7 13  1  0     0  0
  8  4  2  0     0  0
  9  3  1  0     0  0
 10  3  2  0     0  0
 11  2  1  0     0  0
 12  4  1  0     0  0
 13 17  2  0     0  0
 14 12  1  0     0  0
 15 23  1  0     0  0
 16  9  2  0     0  0
 17 10  1  0     0  0
 18 15  1  0     0  0
 19 26  2  0     0  0
 20 11  1  0     0  0
 21 11  2  0     0  0
 22 24  1  0     0  0
 23 25  2  0     0  0
 24 14  2  0     0  0
 25 14  1  0     0  0
 26 21  1  0     0  0
 27 20  2  0     0  0
 28 19  1  0     0  0
 13 16  1  0     0  0
 27 19  1  0     0  0
 15 22  2  0     0  0
M  END


>  <ID>
7760561

>  <cLogP>
4.10

>  <LogSW>
-6.28

>  <RB>
5

>  <tPSA>
75.3

>  <hDon>
2

>  <hAcc>
3

>  <MolName>
2-(4-fluorophenyl)-N-(4-{[(4-methylphenyl)amino]sulfonyl}phenyl)acetamide

$$$$
