
  Accelrys04102014222D 1   1.00000     0.00000     0

 24 25  0     0  0            999 V2000
  -11.7292   12.4042    0.0000 C   0  0  3  0  0  0           0  0  0
    0.5792   -1.9750    0.0000 C   0  0  0  0  0  0           0  0  0
    6.8292   -5.3375    0.0000 C   0  0  0  0  0  0           0  0  0
    2.7167   -5.4250    0.0000 N   0  0  0  0  0  0           0  0  0
    8.9917   -8.8500    0.0000 C   0  0  0  0  0  0           0  0  0
   -3.5333   -1.9750    0.0000 N   0  0  0  0  0  0           0  0  0
   -9.6500    8.8042    0.0000 C   0  0  0  0  0  0           0  0  0
    8.7792   -1.7917    0.0000 C   0  0  0  0  0  0           0  0  0
    2.5375    1.6333    0.0000 O   0  0  0  0  0  0           0  0  0
  -15.2667   10.4375    0.0000 F   0  0  0  0  0  0           0  0  0
   -8.0792   14.4250    0.0000 F   0  0  0  0  0  0           0  0  0
  -13.6917   16.0000    0.0000 F   0  0  0  0  0  0           0  0  0
  -11.7875    5.3792    0.0000 C   0  0  0  0  0  0           0  0  0
   -5.5583    8.8625    0.0000 C   0  0  0  0  0  0           0  0  0
   12.9292   -1.5792    0.0000 C   0  0  0  0  0  0           0  0  0
   13.0792   -8.8167    0.0000 C   0  0  0  0  0  0           0  0  0
   -5.6125    1.6833    0.0000 C   0  0  0  0  0  0           0  0  0
   15.0542   -5.1250    0.0000 C   0  0  0  0  0  0           0  0  0
   -3.5333    5.2667    0.0000 C   0  0  0  0  0  0           0  0  0
   -9.7542    1.7958    0.0000 C   0  0  0  0  0  0           0  0  0
    6.6792    1.8083    0.0000 O   0  0  0  0  0  0           0  0  0
   15.2667  -12.3625    0.0000 O   0  0  0  0  0  0           0  0  0
    8.6917    5.3792    0.0000 C   0  0  0  0  0  0           0  0  0
   13.3167  -16.0000    0.0000 C   0  0  0  0  0  0           0  0  0
  2  6  1  0     0  0
  3  4  1  0     0  0
  4  2  1  0     0  0
  5  3  1  0     0  0
  6 17  1  0     0  0
  7  1  1  0     0  0
  8  3  2  0     0  0
  9  2  2  0     0  0
 10  1  1  0     0  0
 11  1  1  0     0  0
 12  1  1  0     0  0
 13  7  1  0     0  0
 14  7  2  0     0  0
 15  8  1  0     0  0
 16  5  2  0     0  0
 17 19  2  0     0  0
 18 15  2  0     0  0
 19 14  1  0     0  0
 20 13  2  0     0  0
 21  8  1  0     0  0
 22 16  1  0     0  0
 23 21  1  0     0  0
 24 22  1  0     0  0
 17 20  1  0     0  0
 16 18  1  0     0  0
M  END


>  <ID>
7808526

>  <cLogP>
4.40

>  <LogSW>
-5.44

>  <RB>
2

>  <tPSA>
59.6

>  <hDon>
2

>  <hAcc>
3

>  <MolName>
N-(2,5-dimethoxyphenyl)-N'-[4-(trifluoromethyl)phenyl]urea

$$$$
