
  Accelrys04102014222D 1   1.00000     0.00000     0

 26 29  0     0  0            999 V2000
    4.3167    1.9708    0.0000 C   0  0  0  0  0  0           0  0  0
    4.3167    1.2208    0.0000 N   0  0  3  0  0  0           0  0  0
    5.0292    2.2000    0.0000 N   0  0  0  0  0  0           0  0  0
    5.4708    1.5958    0.0000 C   0  0  0  0  0  0           0  0  0
    5.0292    0.9875    0.0000 C   0  0  0  0  0  0           0  0  0
    7.5708    0.0667    0.0000 C   0  0  0  0  0  0           0  0  0
    7.2667    0.7542    0.0000 N   0  0  0  0  0  0           0  0  0
    3.6667    0.8458    0.0000 C   0  0  0  0  0  0           0  0  0
    3.6667    2.3458    0.0000 C   0  0  0  0  0  0           0  0  0
    6.2167    1.5167    0.0000 C   0  0  0  0  0  0           0  0  0
    3.0167    1.9708    0.0000 N   0  0  3  0  0  0           0  0  0
    5.3333    0.3042    0.0000 C   0  0  0  0  0  0           0  0  0
    6.5208    0.8292    0.0000 C   0  0  0  0  0  0           0  0  0
    7.1333   -0.5375    0.0000 O   0  0  0  0  0  0           0  0  0
    8.3167   -0.0125    0.0000 C   0  0  0  0  0  0           0  0  0
    3.0167    1.2208    0.0000 C   0  0  0  0  0  0           0  0  0
    6.0792    0.2250    0.0000 C   0  0  0  0  0  0           0  0  0
    2.3667    2.3458    0.0000 C   0  0  0  0  0  0           0  0  0
    1.0708    2.3458    0.0000 O   0  0  0  0  0  0           0  0  0
    8.6250   -0.6958    0.0000 C   0  0  0  0  0  0           0  0  0
    8.7583    0.5958    0.0000 C   0  0  0  0  0  0           0  0  0
    1.7167    1.9708    0.0000 C   0  0  0  0  0  0           0  0  0
    0.4208    1.9708    0.0000 C   0  0  0  0  0  0           0  0  0
    9.5042    0.5167    0.0000 C   0  0  0  0  0  0           0  0  0
    9.3708   -0.7750    0.0000 C   0  0  0  0  0  0           0  0  0
    9.8125   -0.1667    0.0000 C   0  0  0  0  0  0           0  0  0
  2  1  1  0     0  0
  3  1  2  0     0  0
  4  3  1  0     0  0
  5  2  1  0     0  0
  6  7  1  0     0  0
  7 13  1  0     0  0
  8  2  1  0     0  0
  9  1  1  0     0  0
 10  4  1  0     0  0
 11  9  1  0     0  0
 12  5  1  0     0  0
 13 10  2  0     0  0
 14  6  2  0     0  0
 15  6  1  0     0  0
 16 11  1  0     0  0
 17 12  2  0     0  0
 18 11  1  0     0  0
 19 22  1  0     0  0
 20 15  2  0     0  0
 21 15  1  0     0  0
 22 18  1  0     0  0
 23 19  1  0     0  0
 24 21  2  0     0  0
 25 20  1  0     0  0
 26 24  1  0     0  0
  4  5  2  0     0  0
 16  8  1  0     0  0
 13 17  1  0     0  0
 25 26  2  0     0  0
M  END


>  <ID>
7928055

>  <cLogP>
2.51

>  <LogSW>
-3.90

>  <RB>
4

>  <tPSA>
59.4

>  <hDon>
1

>  <hAcc>
4

>  <MolName>
N-[2-(2-methoxyethyl)-1,2,3,4-tetrahydropyrazino[1,2-a]benzimidazol-8-yl]benzamide

$$$$
