
  Accelrys04102014222D 1   1.00000     0.00000     0

 23 25  0     0  0            999 V2000
   -2.7125    0.1958    0.0000 C   0  0  0  0  0  0           0  0  0
   -3.2125    0.4125    0.0000 N   0  0  0  0  0  0           0  0  0
   -2.7708   -0.3500    0.0000 N   0  0  0  0  0  0           0  0  0
    1.5500    0.8708    0.0000 C   0  0  0  0  0  0           0  0  0
   -3.5708    0.0125    0.0000 C   0  0  0  0  0  0           0  0  0
    2.0167    0.6000    0.0000 N   0  0  0  0  0  0           0  0  0
   -3.3125   -0.4667    0.0000 C   0  0  0  0  0  0           0  0  0
   -1.2958    0.4125    0.0000 C   0  0  0  0  0  0           0  0  0
   -2.2333    0.4500    0.0000 S   0  0  0  0  0  0           0  0  0
   -0.8333    0.1125    0.0000 N   0  0  0  0  0  0           0  0  0
   -1.2500    0.9500    0.0000 O   0  0  0  0  0  0           0  0  0
    1.0792    1.1458    0.0000 S   0  0  0  0  0  0           0  0  0
   -1.7708    0.1500    0.0000 C   0  0  0  0  0  0           0  0  0
   -0.3500    0.3500    0.0000 C   0  0  0  0  0  0           0  0  0
    0.6042    0.8708    0.0000 C   0  0  0  0  0  0           0  0  0
   -0.3458    0.8958    0.0000 C   0  0  0  0  0  0           0  0  0
    0.1292    0.0625    0.0000 C   0  0  0  0  0  0           0  0  0
    0.6000    0.3208    0.0000 C   0  0  0  0  0  0           0  0  0
    0.1542    1.1625    0.0000 C   0  0  0  0  0  0           0  0  0
   -4.1333    0.0125    0.0000 C   0  0  0  0  0  0           0  0  0
   -3.5708   -0.9500    0.0000 C   0  0  0  0  0  0           0  0  0
   -4.3958   -0.4667    0.0000 C   0  0  0  0  0  0           0  0  0
   -4.1125   -0.9500    0.0000 C   0  0  0  0  0  0           0  0  0
  2  1  2  0     0  0
  3  1  1  0     0  0
  4 12  1  0     0  0
  5  2  1  0     0  0
  6  4  3  0     0  0
  7  3  1  0     0  0
  8 13  1  0     0  0
  9  1  1  0     0  0
 10  8  1  0     0  0
 11  8  2  0     0  0
 12 15  1  0     0  0
 13  9  1  0     0  0
 14 10  1  0     0  0
 15 18  2  0     0  0
 16 14  1  0     0  0
 17 14  2  0     0  0
 18 17  1  0     0  0
 19 16  2  0     0  0
 20  5  1  0     0  0
 21  7  1  0     0  0
 22 20  2  0     0  0
 23 21  2  0     0  0
  7  5  2  0     0  0
 22 23  1  0     0  0
 15 19  1  0     0  0
M  END


>  <ID>
6572698

>  <cLogP>
3.47

>  <LogSW>
-4.65

>  <RB>
5

>  <tPSA>
81.6

>  <hDon>
2

>  <hAcc>
3

>  <MolName>
4-{[(1H-benzimidazol-2-ylthio)acetyl]amino}phenyl thiocyanate

$$$$
