
  Accelrys04102014222D 1   1.00000     0.00000     0

 14 16  0     0  0            999 V2000
   -0.5500   -1.1792    0.0000 N   0  0  0  0  0  0           0  0  0
   -0.5708    0.3000    0.0000 C   0  0  0  0  0  0           0  0  0
   -0.0125   -0.4042    0.0000 C   0  0  0  0  0  0           0  0  0
   -1.4458    0.0458    0.0000 C   0  0  0  0  0  0           0  0  0
   -1.4458   -0.9167    0.0000 C   0  0  0  0  0  0           0  0  0
   -0.2625    1.1833    0.0000 C   0  0  0  0  0  0           0  0  0
    0.9042   -0.2667    0.0000 C   0  0  0  0  0  0           0  0  0
    0.6792    1.3208    0.0000 C   0  0  0  0  0  0           0  0  0
    1.0167    2.1708    0.0000 N   0  0  0  0  0  0           0  0  0
    1.2542    0.5833    0.0000 C   0  0  0  0  0  0           0  0  0
   -2.2500    0.5000    0.0000 C   0  0  0  0  0  0           0  0  0
   -2.2500   -1.3792    0.0000 C   0  0  0  0  0  0           0  0  0
   -3.0500    0.0458    0.0000 C   0  0  0  0  0  0           0  0  0
   -3.0500   -0.9167    0.0000 C   0  0  0  0  0  0           0  0  0
  2  3  1  0     0  0
  3  1  1  0     0  0
  4  5  2  0     0  0
  5  1  1  0     0  0
  6  2  2  0     0  0
  7  3  2  0     0  0
  8 10  2  0     0  0
  9  8  1  0     0  0
 10  7  1  0     0  0
 11  4  1  0     0  0
 12  5  1  0     0  0
 13 14  1  0     0  0
 14 12  2  0     0  0
  2  4  1  0     0  0
 11 13  2  0     0  0
  8  6  1  0     0  0
M  END


>  <ID>
5172420

>  <cLogP>
2.28

>  <LogSW>
-3.59

>  <RB>
0

>  <tPSA>
41.8

>  <hDon>
2

>  <hAcc>
0

>  <MolName>
9H-carbazol-3-amine

$$$$
