
  Accelrys04102014222D 1   1.00000     0.00000     0

 21 23  0     0  0            999 V2000
    2.9167    1.9625    0.0000 C   0  0  0  0  0  0           0  0  0
    3.6667    1.9625    0.0000 C   0  0  0  0  0  0           0  0  0
    2.5417    2.6125    0.0000 C   0  0  0  0  0  0           0  0  0
    1.7917    2.6125    0.0000 N   0  0  0  0  0  0           0  0  0
    2.5417    1.3125    0.0000 C   0  0  0  0  0  0           0  0  0
    4.0417    1.3125    0.0000 N   0  0  0  0  0  0           0  0  0
    1.4167    1.9625    0.0000 C   0  0  0  0  0  0           0  0  0
    1.7917    1.3125    0.0000 C   0  0  0  0  0  0           0  0  0
    4.0417    2.6125    0.0000 O   0  0  0  0  0  0           0  0  0
    4.7917    1.3125    0.0000 C   0  0  0  0  0  0           0  0  0
    5.1667    0.6625    0.0000 C   0  0  0  0  0  0           0  0  0
    2.9167    3.2625    0.0000 N   0  0  0  0  0  0           0  0  0
    5.9167    0.6625    0.0000 C   0  0  0  0  0  0           0  0  0
    6.2917    0.0125    0.0000 Cl  0  0  0  0  0  0           0  0  0
    5.9167    1.9625    0.0000 C   0  0  0  0  0  0           0  0  0
    5.1667    1.9625    0.0000 C   0  0  0  0  0  0           0  0  0
    0.6667    1.9625    0.0000 C   0  0  0  0  0  0           0  0  0
    1.4167    0.6625    0.0000 C   0  0  0  0  0  0           0  0  0
    6.2917    1.3125    0.0000 C   0  0  0  0  0  0           0  0  0
    0.6667    0.6625    0.0000 C   0  0  0  0  0  0           0  0  0
    0.2917    1.3125    0.0000 C   0  0  0  0  0  0           0  0  0
  2  1  1  0     0  0
  3  1  2  0     0  0
  4  3  1  0     0  0
  5  1  1  0     0  0
  6  2  1  0     0  0
  7  8  1  0     0  0
  8  5  2  0     0  0
  9  2  2  0     0  0
 10  6  1  0     0  0
 11 10  2  0     0  0
 12  3  1  0     0  0
 13 11  1  0     0  0
 14 13  1  0     0  0
 15 16  2  0     0  0
 16 10  1  0     0  0
 17  7  1  0     0  0
 18  8  1  0     0  0
 19 15  1  0     0  0
 20 18  2  0     0  0
 21 20  1  0     0  0
  4  7  2  0     0  0
 21 17  2  0     0  0
 13 19  2  0     0  0
M  END


>  <ID>
7963087

>  <cLogP>
4.40

>  <LogSW>
-5.13

>  <RB>
2

>  <tPSA>
68.0

>  <hDon>
2

>  <hAcc>
2

>  <MolName>
2-amino-N-(3-chlorophenyl)-3-quinolinecarboxamide

$$$$
