
  Accelrys04102014222D 1   1.00000     0.00000     0

 30 34  0     0  0            999 V2000
   -4.2208    1.5625    0.0000 C   0  0  0  0  0  0           0  0  0
   -4.5208    1.9833    0.0000 N   0  0  0  0  0  0           0  0  0
   -4.5208    1.1208    0.0000 N   0  0  3  0  0  0           0  0  0
   -2.4500    1.5625    0.0000 N   0  0  0  0  0  0           0  0  0
   -2.8125    1.1625    0.0000 C   0  0  0  0  0  0           0  0  0
   -2.5333    0.7000    0.0000 N   0  0  0  0  0  0           0  0  0
   -5.0333    1.2833    0.0000 C   0  0  0  0  0  0           0  0  0
   -5.0333    1.8208    0.0000 C   0  0  0  0  0  0           0  0  0
   -1.9708    1.3458    0.0000 C   0  0  0  0  0  0           0  0  0
   -3.6500    1.6000    0.0000 S   0  0  0  0  0  0           0  0  0
   -2.0125    0.8208    0.0000 C   0  0  0  0  0  0           0  0  0
   -3.3708    1.1458    0.0000 C   0  0  0  0  0  0           0  0  0
   -4.3333    0.5833    0.0000 C   0  0  0  0  0  0           0  0  0
   -3.0500   -0.1375    0.0000 C   0  0  0  0  0  0           0  0  0
   -1.9708   -0.3375    0.0000 C   0  0  0  0  0  0           0  0  0
   -2.8708   -0.6542    0.0000 C   0  0  0  0  0  0           0  0  0
   -2.6958    0.2833    0.0000 C   0  0  0  0  0  0           0  0  0
   -2.1500    0.1833    0.0000 C   0  0  0  0  0  0           0  0  0
   -2.3333   -0.7542    0.0000 C   0  0  0  0  0  0           0  0  0
   -3.5958   -0.0292    0.0000 O   0  0  0  0  0  0           0  0  0
   -3.7958    0.4833    0.0000 C   0  0  0  0  0  0           0  0  0
   -5.5208    1.0000    0.0000 C   0  0  0  0  0  0           0  0  0
   -5.5208    2.1000    0.0000 C   0  0  0  0  0  0           0  0  0
   -1.4708    1.5833    0.0000 C   0  0  0  0  0  0           0  0  0
   -1.5708    0.5208    0.0000 C   0  0  0  0  0  0           0  0  0
   -1.4333   -0.4375    0.0000 C   0  0  0  0  0  0           0  0  0
   -5.9958    1.2833    0.0000 C   0  0  0  0  0  0           0  0  0
   -5.9958    1.8208    0.0000 C   0  0  0  0  0  0           0  0  0
   -1.0333    1.2625    0.0000 C   0  0  0  0  0  0           0  0  0
   -1.0958    0.7458    0.0000 C   0  0  0  0  0  0           0  0  0
  2  1  2  0     0  0
  3  1  1  0     0  0
  4  5  2  0     0  0
  5 12  1  0     0  0
  6  5  1  0     0  0
  7  3  1  0     0  0
  8  2  1  0     0  0
  9  4  1  0     0  0
 10  1  1  0     0  0
 11  6  1  0     0  0
 12 10  1  0     0  0
 13  3  1  0     0  0
 14 20  1  0     0  0
 15 18  2  0     0  0
 16 14  1  0     0  0
 17 14  2  0     0  0
 18 17  1  0     0  0
 19 16  2  0     0  0
 20 21  1  0     0  0
 21 13  1  0     0  0
 22  7  1  0     0  0
 23  8  1  0     0  0
 24  9  1  0     0  0
 25 11  1  0     0  0
 26 15  1  0     0  0
 27 22  2  0     0  0
 28 23  2  0     0  0
 29 24  2  0     0  0
 30 25  2  0     0  0
  7  8  2  0     0  0
 28 27  1  0     0  0
 11  9  2  0     0  0
 30 29  1  0     0  0
 19 15  1  0     0  0
M  END


>  <ID>
5669125

>  <cLogP>
5.79

>  <LogSW>
-8.28

>  <RB>
7

>  <tPSA>
55.7

>  <hDon>
1

>  <hAcc>
4

>  <MolName>
2-[(1H-benzimidazol-2-ylmethyl)thio]-1-[2-(4-methylphenoxy)ethyl]-1H-benzimidazole

$$$$
