
  Accelrys04102014222D 1   1.00000     0.00000     0

 29 33  0     0  0            999 V2000
    4.8167    2.0583    0.0000 C   0  0  0  0  0  0           0  0  0
    4.1667    1.6833    0.0000 C   0  0  0  0  0  0           0  0  0
    6.1167    2.8083    0.0000 N   0  0  0  0  0  0           0  0  0
    4.8167    2.8083    0.0000 C   0  0  0  0  0  0           0  0  0
    6.1167    2.0583    0.0000 C   0  0  0  0  0  0           0  0  0
    5.4667    1.6833    0.0000 C   0  0  0  0  0  0           0  0  0
    5.4667    3.1833    0.0000 C   0  0  0  0  0  0           0  0  0
    3.5167    2.0583    0.0000 N   0  0  0  0  0  0           0  0  0
    1.5708    1.6833    0.0000 C   0  0  0  0  0  0           0  0  0
    2.2208    2.0583    0.0000 C   0  0  0  0  0  0           0  0  0
    6.7667    1.6833    0.0000 C   0  0  0  0  0  0           0  0  0
    1.5708    0.9333    0.0000 C   0  0  0  0  0  0           0  0  0
    0.8542    1.9167    0.0000 O   0  0  0  0  0  0           0  0  0
    2.8667    1.6833    0.0000 C   0  0  0  0  0  0           0  0  0
    0.8542    0.7042    0.0000 O   0  0  0  0  0  0           0  0  0
    4.1667    3.1833    0.0000 C   0  0  0  0  0  0           0  0  0
    4.1667    0.9333    0.0000 O   0  0  0  0  0  0           0  0  0
    0.4167    1.3083    0.0000 C   0  0  0  0  0  0           0  0  0
    7.4167    0.5583    0.0000 N   0  0  0  0  0  0           0  0  0
    5.4667    3.9333    0.0000 C   0  0  0  0  0  0           0  0  0
    2.2208    0.5583    0.0000 C   0  0  0  0  0  0           0  0  0
    4.1667    3.9333    0.0000 C   0  0  0  0  0  0           0  0  0
    2.8667    0.9333    0.0000 C   0  0  0  0  0  0           0  0  0
    4.8167    4.3042    0.0000 C   0  0  0  0  0  0           0  0  0
    6.7667    0.9333    0.0000 C   0  0  0  0  0  0           0  0  0
    3.5167    4.3042    0.0000 Cl  0  0  0  0  0  0           0  0  0
    7.4167    2.0583    0.0000 C   0  0  0  0  0  0           0  0  0
    8.0667    0.9333    0.0000 C   0  0  0  0  0  0           0  0  0
    8.0667    1.6833    0.0000 C   0  0  0  0  0  0           0  0  0
  2  1  1  0     0  0
  3  5  1  0     0  0
  4  1  2  0     0  0
  5  6  2  0     0  0
  6  1  1  0     0  0
  7  4  1  0     0  0
  8  2  1  0     0  0
  9 10  2  0     0  0
 10 14  1  0     0  0
 11  5  1  0     0  0
 12 21  2  0     0  0
 13  9  1  0     0  0
 14  8  1  0     0  0
 15 12  1  0     0  0
 16  4  1  0     0  0
 17  2  2  0     0  0
 18 13  1  0     0  0
 19 25  2  0     0  0
 20  7  1  0     0  0
 21 23  1  0     0  0
 22 16  2  0     0  0
 23 14  2  0     0  0
 24 22  1  0     0  0
 25 11  1  0     0  0
 26 22  1  0     0  0
 27 11  2  0     0  0
 28 29  2  0     0  0
 29 27  1  0     0  0
  3  7  2  0     0  0
 24 20  2  0     0  0
 19 28  1  0     0  0
  9 12  1  0     0  0
 18 15  1  0     0  0
M  END


>  <ID>
7924029

>  <cLogP>
4.19

>  <LogSW>
-5.72

>  <RB>
3

>  <tPSA>
73.3

>  <hDon>
1

>  <hAcc>
5

>  <MolName>
N-1,3-benzodioxol-5-yl-6-chloro-2-(3-pyridinyl)-4-quinolinecarboxamide

$$$$
