
  Accelrys04102014222D 1   1.00000     0.00000     0

 30 35  0     0  0            999 V2000
    5.7917    2.8750    0.0000 C   0  0  0  0  0  0           0  0  0
    5.1875    2.4333    0.0000 N   0  0  3  0  0  0           0  0  0
    6.4000    2.4333    0.0000 N   0  0  3  0  0  0           0  0  0
    5.5625    3.5875    0.0000 N   0  0  0  0  0  0           0  0  0
    4.5792    2.8750    0.0000 C   0  0  0  0  0  0           0  0  0
    5.4167    1.7208    0.0000 C   0  0  0  0  0  0           0  0  0
    4.8125    3.5875    0.0000 N   0  0  0  0  0  0           0  0  0
    6.1667    1.7208    0.0000 C   0  0  0  0  0  0           0  0  0
    1.9875    3.3542    0.0000 N   0  0  0  0  0  0           0  0  0
    2.5958    2.9125    0.0000 C   0  0  0  0  0  0           0  0  0
    2.3625    2.2000    0.0000 N   0  0  0  0  0  0           0  0  0
    1.3833    2.9125    0.0000 C   0  0  0  0  0  0           0  0  0
    1.6125    2.2000    0.0000 C   0  0  0  0  0  0           0  0  0
    3.8667    2.6417    0.0000 S   0  0  0  0  0  0           0  0  0
    7.1125    2.6667    0.0000 C   0  0  0  0  0  0           0  0  0
    3.3083    3.1458    0.0000 C   0  0  0  0  0  0           0  0  0
    5.0417    1.0708    0.0000 C   0  0  0  0  0  0           0  0  0
    7.6708    2.1625    0.0000 C   0  0  0  0  0  0           0  0  0
    6.5417    1.0708    0.0000 C   0  0  0  0  0  0           0  0  0
    0.6500    3.0708    0.0000 C   0  0  0  0  0  0           0  0  0
    1.1125    1.6417    0.0000 C   0  0  0  0  0  0           0  0  0
    7.5125    1.4292    0.0000 C   0  0  0  0  0  0           0  0  0
    8.3833    2.3958    0.0000 C   0  0  0  0  0  0           0  0  0
    5.4167    0.4208    0.0000 C   0  0  0  0  0  0           0  0  0
    6.1667    0.4208    0.0000 C   0  0  0  0  0  0           0  0  0
    0.1458    2.5125    0.0000 C   0  0  0  0  0  0           0  0  0
    0.3792    1.8000    0.0000 C   0  0  0  0  0  0           0  0  0
    8.9417    1.8958    0.0000 C   0  0  0  0  0  0           0  0  0
    8.0708    0.9292    0.0000 C   0  0  0  0  0  0           0  0  0
    8.7833    1.1583    0.0000 C   0  0  0  0  0  0           0  0  0
  2  1  1  0     0  0
  3  1  1  0     0  0
  4  1  2  0     0  0
  5  2  1  0     0  0
  6  2  1  0     0  0
  7  4  1  0     0  0
  8  3  1  0     0  0
  9 10  2  0     0  0
 10 16  1  0     0  0
 11 10  1  0     0  0
 12  9  1  0     0  0
 13 11  1  0     0  0
 14  5  1  0     0  0
 15  3  1  0     0  0
 16 14  1  0     0  0
 17  6  2  0     0  0
 18 15  1  0     0  0
 19  8  2  0     0  0
 20 12  1  0     0  0
 21 13  1  0     0  0
 22 18  2  0     0  0
 23 18  1  0     0  0
 24 17  1  0     0  0
 25 19  1  0     0  0
 26 20  2  0     0  0
 27 21  2  0     0  0
 28 23  2  0     0  0
 29 22  1  0     0  0
 30 28  1  0     0  0
  5  7  2  0     0  0
  6  8  1  0     0  0
 24 25  2  0     0  0
 30 29  2  0     0  0
 13 12  2  0     0  0
 27 26  1  0     0  0
M  END


>  <ID>
7928214

>  <cLogP>
4.43

>  <LogSW>
-7.09

>  <RB>
5

>  <tPSA>
63.8

>  <hDon>
1

>  <hAcc>
3

>  <MolName>
3-[(1H-benzimidazol-2-ylmethyl)thio]-9-benzyl-9H-[1,2,4]triazolo[4,3-a]benzimidazole

$$$$
