
  Accelrys04102014222D 1   1.00000     0.00000     0

 28 30  0     0  0            999 V2000
    5.2750    3.1583    0.0000 C   0  0  0  0  0  0           0  0  0
    6.0167    3.0792    0.0000 C   0  0  0  0  0  0           0  0  0
    5.1167    3.8917    0.0000 S   0  0  0  0  0  0           0  0  0
    6.3250    3.7667    0.0000 C   0  0  0  0  0  0           0  0  0
    5.7667    4.2542    0.0000 C   0  0  0  0  0  0           0  0  0
    4.7750    2.5958    0.0000 N   0  0  0  0  0  0           0  0  0
    6.3917    2.4250    0.0000 C   0  0  0  0  0  0           0  0  0
    4.0417    2.7583    0.0000 C   0  0  0  0  0  0           0  0  0
    7.1417    2.4250    0.0000 N   0  0  0  0  0  0           0  0  0
    6.0167    1.7750    0.0000 O   0  0  0  0  0  0           0  0  0
    9.3917    1.1250    0.0000 N   0  0  0  0  0  0           0  0  0
    3.8042    3.4708    0.0000 O   0  0  0  0  0  0           0  0  0
    8.2667    1.7750    0.0000 C   0  0  0  0  0  0           0  0  0
    7.5167    1.7750    0.0000 C   0  0  0  0  0  0           0  0  0
    2.8042    2.3500    0.0000 O   0  0  0  0  0  0           0  0  0
    3.5375    2.1958    0.0000 C   0  0  0  0  0  0           0  0  0
    7.0542    3.9208    0.0000 C   0  0  0  0  0  0           0  0  0
    5.8417    5.0042    0.0000 C   0  0  0  0  0  0           0  0  0
    2.3042    1.7958    0.0000 C   0  0  0  0  0  0           0  0  0
    8.6417    1.1250    0.0000 C   0  0  0  0  0  0           0  0  0
    9.7667    1.7750    0.0000 C   0  0  0  0  0  0           0  0  0
    8.6417    2.4250    0.0000 C   0  0  0  0  0  0           0  0  0
    1.5667    1.9542    0.0000 C   0  0  0  0  0  0           0  0  0
    2.5292    1.0833    0.0000 C   0  0  0  0  0  0           0  0  0
    9.3917    2.4250    0.0000 C   0  0  0  0  0  0           0  0  0
    2.0292    0.5250    0.0000 C   0  0  0  0  0  0           0  0  0
    1.0667    1.3958    0.0000 C   0  0  0  0  0  0           0  0  0
    1.3000    0.6833    0.0000 C   0  0  0  0  0  0           0  0  0
  2  1  2  0     0  0
  3  1  1  0     0  0
  4  2  1  0     0  0
  5  3  1  0     0  0
  6  1  1  0     0  0
  7  2  1  0     0  0
  8  6  1  0     0  0
  9  7  1  0     0  0
 10  7  2  0     0  0
 11 20  2  0     0  0
 12  8  2  0     0  0
 13 14  1  0     0  0
 14  9  1  0     0  0
 15 16  1  0     0  0
 16  8  1  0     0  0
 17  4  1  0     0  0
 18  5  1  0     0  0
 19 15  1  0     0  0
 20 13  1  0     0  0
 21 25  2  0     0  0
 22 13  2  0     0  0
 23 19  2  0     0  0
 24 19  1  0     0  0
 25 22  1  0     0  0
 26 24  2  0     0  0
 27 23  1  0     0  0
 28 26  1  0     0  0
  5  4  2  0     0  0
 28 27  2  0     0  0
 21 11  1  0     0  0
M  END


>  <ID>
7945999

>  <cLogP>
2.94

>  <LogSW>
-3.29

>  <RB>
7

>  <tPSA>
80.3

>  <hDon>
2

>  <hAcc>
4

>  <MolName>
4,5-dimethyl-2-[(phenoxyacetyl)amino]-N-(3-pyridinylmethyl)-3-thiophenecarboxamide

$$$$
