
  Accelrys04102014222D 1   1.00000     0.00000     0

 21 23  0     0  0            999 V2000
    4.0875    1.0333    0.0000 C   0  0  0  0  0  0           0  0  0
    3.3500    0.3958    0.0000 N   0  0  0  0  0  0           0  0  0
    3.7500   -0.5292    0.0000 C   0  0  0  0  0  0           0  0  0
    4.1042    2.0167    0.0000 N   0  0  0  0  0  0           0  0  0
    2.4042    2.0500    0.0000 N   0  0  0  0  0  0           0  0  0
    4.9292    0.5333    0.0000 S   0  0  0  0  0  0           0  0  0
    3.2500    2.5333    0.0000 C   0  0  0  0  0  0           0  0  0
    4.7042   -0.4292    0.0000 C   0  0  0  0  0  0           0  0  0
    1.5667    2.5500    0.0000 C   0  0  0  0  0  0           0  0  0
    3.2500   -1.3875    0.0000 C   0  0  3  0  0  0           0  0  0
    0.7292    2.0500    0.0000 C   0  0  0  0  0  0           0  0  0
    1.5667    3.5333    0.0000 C   0  0  0  0  0  0           0  0  0
    2.4042    4.0042    0.0000 C   0  0  0  0  0  0           0  0  0
    3.2500    3.5333    0.0000 C   0  0  0  0  0  0           0  0  0
    0.7292    1.0708    0.0000 O   0  0  0  0  0  0           0  0  0
   -0.1333    3.5333    0.0000 C   0  0  0  0  0  0           0  0  0
    2.7667   -2.2667    0.0000 C   0  0  0  0  0  0           0  0  0
    4.1292   -1.8875    0.0000 C   0  0  0  0  0  0           0  0  0
    2.3833   -0.9042    0.0000 C   0  0  0  0  0  0           0  0  0
   -0.1333    2.5333    0.0000 C   0  0  0  0  0  0           0  0  0
    0.7292    4.0042    0.0000 C   0  0  0  0  0  0           0  0  0
  2  1  2  0     0  0
  3  2  1  0     0  0
  4  1  1  0     0  0
  5  7  2  0     0  0
  6  1  1  0     0  0
  7  4  1  0     0  0
  8  6  1  0     0  0
  9  5  1  0     0  0
 10  3  1  0     0  0
 11  9  1  0     0  0
 12 13  1  0     0  0
 13 14  2  0     0  0
 14  7  1  0     0  0
 15 11  1  0     0  0
 16 21  2  0     0  0
 17 10  1  0     0  0
 18 10  1  0     0  0
 19 10  1  0     0  0
 20 11  2  0     0  0
 21 12  1  0     0  0
  3  8  2  0     0  0
 12  9  2  0     0  0
 20 16  1  0     0  0
M  END


>  <ID>
5175089

>  <cLogP>
5.00

>  <LogSW>
-5.07

>  <RB>
3

>  <tPSA>
58.0

>  <hDon>
2

>  <hAcc>
3

>  <MolName>
2-[(4-tert-butyl-1,3-thiazol-2-yl)amino]-8-quinolinol

$$$$
