
  Accelrys04102014222D 1   1.00000     0.00000     0

 29 32  0     0  0            999 V2000
    6.7375    2.6250    0.0000 N   0  0  0  0  0  0           0  0  0
    5.4375    1.8750    0.0000 C   0  0  0  0  0  0           0  0  0
    6.7375    1.8750    0.0000 C   0  0  0  0  0  0           0  0  0
    1.4625    2.6208    0.0000 N   0  0  0  0  0  0           0  0  0
    6.0875    3.0000    0.0000 C   0  0  0  0  0  0           0  0  0
    6.0875    1.5000    0.0000 C   0  0  0  0  0  0           0  0  0
    5.4375    2.6250    0.0000 C   0  0  0  0  0  0           0  0  0
    1.5417    1.8750    0.0000 N   0  0  3  0  0  0           0  0  0
    4.7917    1.5000    0.0000 C   0  0  0  0  0  0           0  0  0
    0.3542    2.1292    0.0000 C   0  0  0  0  0  0           0  0  0
    0.8583    1.5708    0.0000 C   0  0  0  0  0  0           0  0  0
    0.7292    2.7792    0.0000 C   0  0  0  0  0  0           0  0  0
    6.0875    3.7500    0.0000 C   0  0  0  0  0  0           0  0  0
    7.3875    1.5000    0.0000 C   0  0  0  0  0  0           0  0  0
    6.7375    4.1208    0.0000 N   0  0  0  0  0  0           0  0  0
    4.7917    0.7500    0.0000 O   0  0  0  0  0  0           0  0  0
    4.1417    1.8750    0.0000 N   0  0  0  0  0  0           0  0  0
    8.0375    1.8750    0.0000 Cl  0  0  0  0  0  0           0  0  0
    2.1917    1.5000    0.0000 C   0  0  0  0  0  0           0  0  0
    6.0875    0.7500    0.0000 C   0  0  0  0  0  0           0  0  0
    2.8417    1.8750    0.0000 C   0  0  0  0  0  0           0  0  0
    6.7375    0.3750    0.0000 C   0  0  0  0  0  0           0  0  0
    6.7375    4.8708    0.0000 C   0  0  0  0  0  0           0  0  0
    3.4917    1.5000    0.0000 C   0  0  0  0  0  0           0  0  0
    7.3875    0.7500    0.0000 C   0  0  0  0  0  0           0  0  0
    0.4250    3.4625    0.0000 C   0  0  0  0  0  0           0  0  0
    5.4375    4.1208    0.0000 C   0  0  0  0  0  0           0  0  0
    6.0875    5.2458    0.0000 C   0  0  0  0  0  0           0  0  0
    5.4375    4.8708    0.0000 C   0  0  0  0  0  0           0  0  0
  2  7  1  0     0  0
  3  1  2  0     0  0
  4  8  1  0     0  0
  5  1  1  0     0  0
  6  3  1  0     0  0
  7  5  2  0     0  0
  8 19  1  0     0  0
  9  2  1  0     0  0
 10 11  2  0     0  0
 11  8  1  0     0  0
 12  4  2  0     0  0
 13  5  1  0     0  0
 14  3  1  0     0  0
 15 13  1  0     0  0
 16  9  2  0     0  0
 17  9  1  0     0  0
 18 14  1  0     0  0
 19 21  1  0     0  0
 20  6  1  0     0  0
 21 24  1  0     0  0
 22 25  1  0     0  0
 23 15  2  0     0  0
 24 17  1  0     0  0
 25 14  2  0     0  0
 26 12  1  0     0  0
 27 13  2  0     0  0
 28 29  2  0     0  0
 29 27  1  0     0  0
  2  6  2  0     0  0
 20 22  2  0     0  0
 23 28  1  0     0  0
 12 10  1  0     0  0
M  END


>  <ID>
7924129

>  <cLogP>
4.04

>  <LogSW>
-5.61

>  <RB>
6

>  <tPSA>
72.7

>  <hDon>
1

>  <hAcc>
4

>  <MolName>
8-chloro-N-[3-(3-methyl-1H-pyrazol-1-yl)propyl]-2-(2-pyridinyl)-4-quinolinecarboxamide

$$$$
