
  Accelrys04102014222D 1   1.00000     0.00000     0

 21 22  0     0  0            999 V2000
   11.3458    0.9167    0.0000 C   0  0  0  0  0  0           0  0  0
   10.8417    1.4708    0.0000 S   0  0  0  0  0  0           0  0  0
   10.1583    1.1667    0.0000 C   0  0  0  0  0  0           0  0  0
   10.9708    0.2667    0.0000 N   0  0  0  0  0  0           0  0  0
   12.0917    0.9917    0.0000 C   0  0  3  0  0  0           0  0  0
   10.2375    0.4208    0.0000 N   0  0  0  0  0  0           0  0  0
    9.5083    1.5417    0.0000 N   0  0  0  0  0  0           0  0  0
    8.8583    1.1667    0.0000 C   0  0  0  0  0  0           0  0  0
    8.2083    1.5417    0.0000 N   0  0  0  0  0  0           0  0  0
    6.2625    1.1667    0.0000 C   0  0  0  0  0  0           0  0  0
    6.9125    1.5417    0.0000 C   0  0  0  0  0  0           0  0  0
    7.5583    1.1667    0.0000 C   0  0  0  0  0  0           0  0  0
    6.2625    0.4167    0.0000 C   0  0  0  0  0  0           0  0  0
    8.8583    0.4167    0.0000 O   0  0  0  0  0  0           0  0  0
   12.3583    0.2917    0.0000 F   0  0  0  0  0  0           0  0  0
   12.8125    1.2000    0.0000 F   0  0  0  0  0  0           0  0  0
   11.9458    1.7292    0.0000 F   0  0  0  0  0  0           0  0  0
    6.9125    0.0417    0.0000 C   0  0  0  0  0  0           0  0  0
    5.6125    1.5417    0.0000 Cl  0  0  0  0  0  0           0  0  0
    7.5583    0.4167    0.0000 C   0  0  0  0  0  0           0  0  0
    5.6125    0.0417    0.0000 F   0  0  0  0  0  0           0  0  0
  2  1  1  0     0  0
  3  2  1  0     0  0
  4  1  2  0     0  0
  5  1  1  0     0  0
  6  4  1  0     0  0
  7  3  1  0     0  0
  8  7  1  0     0  0
  9  8  1  0     0  0
 10 11  2  0     0  0
 11 12  1  0     0  0
 12  9  1  0     0  0
 13 18  2  0     0  0
 14  8  2  0     0  0
 15  5  1  0     0  0
 16  5  1  0     0  0
 17  5  1  0     0  0
 18 20  1  0     0  0
 19 10  1  0     0  0
 20 12  2  0     0  0
 21 13  1  0     0  0
  6  3  2  0     0  0
 10 13  1  0     0  0
M  END


>  <ID>
7940158

>  <cLogP>
3.36

>  <LogSW>
-4.55

>  <RB>
2

>  <tPSA>
66.9

>  <hDon>
2

>  <hAcc>
3

>  <MolName>
N-(3-chloro-4-fluorophenyl)-N'-[5-(trifluoromethyl)-1,3,4-thiadiazol-2-yl]urea

$$$$
