
  Accelrys04102014222D 1   1.00000     0.00000     0

 24 27  0     0  0            999 V2000
    5.0167    1.9500    0.0000 N   0  0  3  0  0  0           0  0  0
    5.0167    1.2000    0.0000 C   0  0  0  0  0  0           0  0  0
    4.3000    0.9667    0.0000 N   0  0  0  0  0  0           0  0  0
    5.6667    2.3250    0.0000 C   0  0  0  0  0  0           0  0  0
    4.3000    2.1792    0.0000 N   0  0  0  0  0  0           0  0  0
    6.3125    1.9500    0.0000 C   0  0  0  0  0  0           0  0  0
    5.6667    0.8250    0.0000 N   0  0  0  0  0  0           0  0  0
    6.3125    1.2000    0.0000 C   0  0  0  0  0  0           0  0  0
    3.8625    1.5750    0.0000 C   0  0  0  0  0  0           0  0  0
    5.6667    3.0750    0.0000 O   0  0  0  0  0  0           0  0  0
    6.9625    0.8250    0.0000 C   0  0  0  0  0  0           0  0  0
    3.1125    1.5750    0.0000 C   0  0  0  0  0  0           0  0  0
    2.7375    2.2250    0.0000 C   0  0  0  0  0  0           0  0  0
    1.9875    2.2250    0.0000 C   0  0  0  0  0  0           0  0  0
    6.9625    0.0750    0.0000 C   0  0  0  0  0  0           0  0  0
    7.6125    1.2000    0.0000 C   0  0  0  0  0  0           0  0  0
    1.6125    2.8708    0.0000 C   0  0  0  0  0  0           0  0  0
    1.6125    1.5750    0.0000 C   0  0  0  0  0  0           0  0  0
    8.2625    0.8250    0.0000 C   0  0  0  0  0  0           0  0  0
    7.6125   -0.3000    0.0000 C   0  0  0  0  0  0           0  0  0
    0.8625    1.5750    0.0000 C   0  0  0  0  0  0           0  0  0
    0.8625    2.8708    0.0000 C   0  0  0  0  0  0           0  0  0
    0.4875    2.2250    0.0000 C   0  0  0  0  0  0           0  0  0
    8.2625    0.0750    0.0000 C   0  0  0  0  0  0           0  0  0
  2  1  1  0     0  0
  3  2  2  0     0  0
  4  1  1  0     0  0
  5  1  1  0     0  0
  6  4  1  0     0  0
  7  2  1  0     0  0
  8  6  2  0     0  0
  9  5  2  0     0  0
 10  4  2  0     0  0
 11  8  1  0     0  0
 12  9  1  0     0  0
 13 12  1  0     0  0
 14 13  1  0     0  0
 15 11  2  0     0  0
 16 11  1  0     0  0
 17 14  1  0     0  0
 18 14  2  0     0  0
 19 16  2  0     0  0
 20 15  1  0     0  0
 21 18  1  0     0  0
 22 17  2  0     0  0
 23 21  2  0     0  0
 24 19  1  0     0  0
  3  9  1  0     0  0
  8  7  1  0     0  0
 24 20  2  0     0  0
 23 22  1  0     0  0
M  END


>  <ID>
7927879

>  <cLogP>
2.22

>  <LogSW>
-3.41

>  <RB>
4

>  <tPSA>
63.0

>  <hDon>
1

>  <hAcc>
3

>  <MolName>
5-phenyl-2-(2-phenylethyl)[1,2,4]triazolo[1,5-a]pyrimidin-7(4H)-one

$$$$
