
  Accelrys04102014222D 1   1.00000     0.00000     0

 19 20  0     0  0            999 V2000
    8.4417    0.8333    0.0000 C   0  0  0  0  0  0           0  0  0
   12.3417   -0.6667    0.0000 N   0  0  0  0  0  0           0  0  0
    7.7917    1.2083    0.0000 N   0  0  0  0  0  0           0  0  0
    9.0917    1.2083    0.0000 N   0  0  0  0  0  0           0  0  0
   11.6917   -0.2917    0.0000 C   0  0  0  0  0  0           0  0  0
    8.4417    0.0833    0.0000 O   0  0  0  0  0  0           0  0  0
    7.1417    0.8333    0.0000 C   0  0  0  0  0  0           0  0  0
    6.5000    1.2083    0.0000 C   0  0  0  0  0  0           0  0  0
   11.0417    0.0833    0.0000 C   0  0  0  0  0  0           0  0  0
    9.7417    0.8333    0.0000 C   0  0  0  0  0  0           0  0  0
    5.8500    0.8333    0.0000 C   0  0  0  0  0  0           0  0  0
    5.2000    1.2083    0.0000 Cl  0  0  0  0  0  0           0  0  0
   11.0417    0.8333    0.0000 C   0  0  0  0  0  0           0  0  0
   10.3917   -0.2917    0.0000 C   0  0  0  0  0  0           0  0  0
   10.3917    1.2083    0.0000 C   0  0  0  0  0  0           0  0  0
    9.7417    0.0833    0.0000 C   0  0  0  0  0  0           0  0  0
    6.5000   -0.2917    0.0000 C   0  0  0  0  0  0           0  0  0
    7.1417    0.0833    0.0000 C   0  0  0  0  0  0           0  0  0
    5.8500    0.0833    0.0000 C   0  0  0  0  0  0           0  0  0
  2  5  3  0     0  0
  3  1  1  0     0  0
  4  1  1  0     0  0
  5  9  1  0     0  0
  6  1  2  0     0  0
  7  3  1  0     0  0
  8  7  2  0     0  0
  9 14  1  0     0  0
 10  4  1  0     0  0
 11  8  1  0     0  0
 12 11  1  0     0  0
 13 15  1  0     0  0
 14 16  2  0     0  0
 15 10  2  0     0  0
 16 10  1  0     0  0
 17 18  2  0     0  0
 18  7  1  0     0  0
 19 17  1  0     0  0
  9 13  2  0     0  0
 19 11  2  0     0  0
M  END


>  <ID>
7914021

>  <cLogP>
3.96

>  <LogSW>
-4.83

>  <RB>
2

>  <tPSA>
64.9

>  <hDon>
2

>  <hAcc>
2

>  <MolName>
N-(3-chlorophenyl)-N'-(4-cyanophenyl)urea

$$$$
