
  Accelrys04102014222D 1   1.00000     0.00000     0

 22 24  0     0  0            999 V2000
    3.9000    0.5208    0.0000 S   0  0  3  0  0  0           0  0  0
    7.0042    1.2708    0.0000 C   0  0  0  0  0  0           0  0  0
    6.5625    1.8750    0.0000 N   0  0  0  0  0  0           0  0  0
    6.5625    0.6625    0.0000 O   0  0  0  0  0  0           0  0  0
    5.8500    0.8958    0.0000 C   0  0  0  0  0  0           0  0  0
    4.5500    0.8958    0.0000 C   0  0  0  0  0  0           0  0  0
    3.3667    1.0500    0.0000 N   0  0  0  0  0  0           0  0  0
    5.8500    1.6458    0.0000 C   0  0  0  0  0  0           0  0  0
    5.2000    0.5208    0.0000 C   0  0  0  0  0  0           0  0  0
    3.3250    0.0375    0.0000 O   0  0  0  0  0  0           0  0  0
    4.3292   -0.0917    0.0000 O   0  0  0  0  0  0           0  0  0
    1.3917    1.1958    0.0000 C   0  0  0  0  0  0           0  0  0
    2.1167    1.3833    0.0000 C   0  0  0  0  0  0           0  0  0
    2.6417    0.8583    0.0000 C   0  0  0  0  0  0           0  0  0
    7.7542    1.2708    0.0000 O   0  0  0  0  0  0           0  0  0
    1.1917    0.4708    0.0000 C   0  0  0  0  0  0           0  0  0
    4.5500    1.6458    0.0000 C   0  0  0  0  0  0           0  0  0
    5.2000    2.0208    0.0000 C   0  0  0  0  0  0           0  0  0
    1.7250   -0.0667    0.0000 C   0  0  0  0  0  0           0  0  0
    0.8542    1.7208    0.0000 Cl  0  0  0  0  0  0           0  0  0
    2.4458    0.1333    0.0000 C   0  0  0  0  0  0           0  0  0
    0.4667    0.2708    0.0000 Cl  0  0  0  0  0  0           0  0  0
  2  4  1  0     0  0
  3  8  1  0     0  0
  4  5  1  0     0  0
  5  9  1  0     0  0
  6  1  1  0     0  0
  7  1  1  0     0  0
  8 18  1  0     0  0
  9  6  2  0     0  0
 10  1  2  0     0  0
 11  1  2  0     0  0
 12 13  2  0     0  0
 13 14  1  0     0  0
 14  7  1  0     0  0
 15  2  2  0     0  0
 16 19  2  0     0  0
 17  6  1  0     0  0
 18 17  2  0     0  0
 19 21  1  0     0  0
 20 12  1  0     0  0
 21 14  2  0     0  0
 22 16  1  0     0  0
  8  5  2  0     0  0
 12 16  1  0     0  0
  2  3  1  0     0  0
M  END


>  <ID>
7910528

>  <cLogP>
3.17

>  <LogSW>
-4.53

>  <RB>
2

>  <tPSA>
92.2

>  <hDon>
2

>  <hAcc>
4

>  <MolName>
N-(3,4-dichlorophenyl)-2-oxo-2,3-dihydro-1,3-benzoxazole-6-sulfonamide

$$$$
