
  Accelrys04102014222D 1   1.00000     0.00000     0

 28 32  0     0  0            999 V2000
    1.3667   -2.4292    0.0000 C   0  0  0  0  0  0           0  0  0
    0.9250   -3.0417    0.0000 N   0  0  0  0  0  0           0  0  0
    0.9250   -1.8250    0.0000 N   0  0  0  0  0  0           0  0  0
    4.3667   -1.1292    0.0000 C   0  0  0  0  0  0           0  0  0
    3.6167   -1.1292    0.0000 N   0  0  0  0  0  0           0  0  0
    3.2417   -1.7792    0.0000 C   0  0  0  0  0  0           0  0  0
    2.1167   -2.4292    0.0000 C   0  0  0  0  0  0           0  0  0
    0.2125   -2.8042    0.0000 C   0  0  0  0  0  0           0  0  0
    0.2125   -2.0542    0.0000 C   0  0  0  0  0  0           0  0  0
    4.7417   -0.4792    0.0000 C   0  0  0  0  0  0           0  0  0
    5.8667    0.1708    0.0000 C   0  0  0  0  0  0           0  0  0
    2.4917   -1.7792    0.0000 C   0  0  0  0  0  0           0  0  0
    5.4917   -0.4792    0.0000 C   0  0  0  0  0  0           0  0  0
    5.4917    0.8125    0.0000 C   0  0  0  0  0  0           0  0  0
    6.6000    0.3208    0.0000 O   0  0  0  0  0  0           0  0  0
    5.9917    1.3708    0.0000 O   0  0  0  0  0  0           0  0  0
    6.6792    1.0708    0.0000 C   0  0  0  0  0  0           0  0  0
    3.6167   -2.4292    0.0000 C   0  0  0  0  0  0           0  0  0
    4.7417   -1.7792    0.0000 O   0  0  0  0  0  0           0  0  0
    2.4917   -3.0792    0.0000 C   0  0  0  0  0  0           0  0  0
    4.3667    0.1708    0.0000 C   0  0  0  0  0  0           0  0  0
    4.7417    0.8125    0.0000 C   0  0  0  0  0  0           0  0  0
    3.2417   -3.0792    0.0000 C   0  0  0  0  0  0           0  0  0
   -0.4375   -3.1792    0.0000 C   0  0  0  0  0  0           0  0  0
   -0.4375   -1.6792    0.0000 C   0  0  0  0  0  0           0  0  0
    4.3667   -2.4292    0.0000 C   0  0  0  0  0  0           0  0  0
   -1.0875   -2.8042    0.0000 C   0  0  0  0  0  0           0  0  0
   -1.0875   -2.0542    0.0000 C   0  0  0  0  0  0           0  0  0
  2  1  2  0     0  0
  3  1  1  0     0  0
  4  5  1  0     0  0
  5  6  1  0     0  0
  6 12  1  0     0  0
  7  1  1  0     0  0
  8  2  1  0     0  0
  9  3  1  0     0  0
 10  4  1  0     0  0
 11 13  2  0     0  0
 12  7  2  0     0  0
 13 10  1  0     0  0
 14 22  2  0     0  0
 15 11  1  0     0  0
 16 14  1  0     0  0
 17 15  1  0     0  0
 18 23  1  0     0  0
 19  4  2  0     0  0
 20  7  1  0     0  0
 21 10  2  0     0  0
 22 21  1  0     0  0
 23 20  2  0     0  0
 24  8  1  0     0  0
 25  9  1  0     0  0
 26 18  1  0     0  0
 27 24  2  0     0  0
 28 25  2  0     0  0
  8  9  2  0     0  0
  6 18  2  0     0  0
 27 28  1  0     0  0
 14 11  1  0     0  0
 16 17  1  0     0  0
M  END


>  <ID>
7793889

>  <cLogP>
3.86

>  <LogSW>
-5.20

>  <RB>
3

>  <tPSA>
76.2

>  <hDon>
2

>  <hAcc>
4

>  <MolName>
N-[5-(1H-benzimidazol-2-yl)-2-methylphenyl]-1,3-benzodioxole-5-carboxamide

$$$$
