
  Accelrys04102014222D 1   1.00000     0.00000     0

 23 26  0     0  0            999 V2000
    2.5000    0.9250    0.0000 N   0  0  0  0  0  0           0  0  0
    2.8750    1.5750    0.0000 C   0  0  0  0  0  0           0  0  0
    2.5000    2.2208    0.0000 S   0  0  0  0  0  0           0  0  0
    1.7500    0.9250    0.0000 C   0  0  0  0  0  0           0  0  0
    1.7500    2.2208    0.0000 C   0  0  0  0  0  0           0  0  0
    1.3750    1.5750    0.0000 C   0  0  0  0  0  0           0  0  0
    3.6250    1.5750    0.0000 N   0  0  0  0  0  0           0  0  0
    5.1250    1.5750    0.0000 N   0  0  0  0  0  0           0  0  0
    4.7500    2.2208    0.0000 C   0  0  0  0  0  0           0  0  0
    4.0000    2.2208    0.0000 C   0  0  0  0  0  0           0  0  0
    1.3750    2.8708    0.0000 N   0  0  0  0  0  0           0  0  0
    1.3750    0.2750    0.0000 O   0  0  0  0  0  0           0  0  0
    5.1250    2.8708    0.0000 C   0  0  0  0  0  0           0  0  0
    5.8750    1.5750    0.0000 C   0  0  0  0  0  0           0  0  0
    5.8750    2.8708    0.0000 C   0  0  0  0  0  0           0  0  0
    6.2500    2.2208    0.0000 C   0  0  0  0  0  0           0  0  0
    0.6250    1.5750    0.0000 C   0  0  0  0  0  0           0  0  0
    3.6250    2.8708    0.0000 C   0  0  0  0  0  0           0  0  0
    4.0000    3.5208    0.0000 C   0  0  0  0  0  0           0  0  0
    0.6250    2.8708    0.0000 C   0  0  0  0  0  0           0  0  0
    4.7500    3.5208    0.0000 C   0  0  0  0  0  0           0  0  0
    6.2500    0.9250    0.0000 C   0  0  0  0  0  0           0  0  0
    0.2500    2.2208    0.0000 C   0  0  0  0  0  0           0  0  0
  2  1  2  0     0  0
  3  2  1  0     0  0
  4  1  1  0     0  0
  5  6  2  0     0  0
  6  4  1  0     0  0
  7  2  1  0     0  0
  8  9  1  0     0  0
  9 10  1  0     0  0
 10  7  1  0     0  0
 11  5  1  0     0  0
 12  4  2  0     0  0
 13  9  2  0     0  0
 14  8  2  0     0  0
 15 13  1  0     0  0
 16 15  2  0     0  0
 17  6  1  0     0  0
 18 10  2  0     0  0
 19 18  1  0     0  0
 20 23  1  0     0  0
 21 19  2  0     0  0
 22 14  1  0     0  0
 23 17  2  0     0  0
  3  5  1  0     0  0
 20 11  2  0     0  0
 21 13  1  0     0  0
 16 14  1  0     0  0
M  END


>  <ID>
7905966

>  <cLogP>
3.04

>  <LogSW>
-4.13

>  <RB>
2

>  <tPSA>
67.8

>  <hDon>
1

>  <hAcc>
4

>  <MolName>
2-[(2-methyl-8-quinolinyl)amino]-4H-pyrido[3,2-e][1,3]thiazin-4-one

$$$$
