
  Accelrys04102014222D 1   1.00000     0.00000     0

 30 34  0     0  0            999 V2000
    3.2083    2.2708    0.0000 C   0  0  0  0  0  0           0  0  0
    2.7667    2.8792    0.0000 N   0  0  0  0  0  0           0  0  0
    7.3333    2.9208    0.0000 C   0  0  0  0  0  0           0  0  0
    2.7667    1.6625    0.0000 N   0  0  0  0  0  0           0  0  0
    6.5833    2.9208    0.0000 C   0  0  0  0  0  0           0  0  0
    8.8333    1.6208    0.0000 N   0  0  3  0  0  0           0  0  0
    7.7083    2.2708    0.0000 C   0  0  0  0  0  0           0  0  0
    9.0875    0.4333    0.0000 N   0  0  0  0  0  0           0  0  0
    9.7375    0.8083    0.0000 N   0  0  0  0  0  0           0  0  0
    8.4583    2.2708    0.0000 C   0  0  0  0  0  0           0  0  0
    2.0542    2.6458    0.0000 C   0  0  0  0  0  0           0  0  0
    2.0542    1.8958    0.0000 C   0  0  0  0  0  0           0  0  0
    6.2083    2.2708    0.0000 N   0  0  0  0  0  0           0  0  0
    8.5292    0.9375    0.0000 C   0  0  0  0  0  0           0  0  0
    9.5792    1.5417    0.0000 C   0  0  0  0  0  0           0  0  0
    3.9583    2.2708    0.0000 C   0  0  0  0  0  0           0  0  0
    7.7083    3.5708    0.0000 C   0  0  0  0  0  0           0  0  0
    6.2083    3.5708    0.0000 O   0  0  0  0  0  0           0  0  0
    8.8333    2.9208    0.0000 C   0  0  0  0  0  0           0  0  0
    8.4583    3.5708    0.0000 C   0  0  0  0  0  0           0  0  0
    4.3333    1.6208    0.0000 C   0  0  0  0  0  0           0  0  0
    4.3333    2.9208    0.0000 C   0  0  0  0  0  0           0  0  0
    5.4583    2.2708    0.0000 C   0  0  0  0  0  0           0  0  0
    7.3333    4.2167    0.0000 Cl  0  0  0  0  0  0           0  0  0
    5.0833    1.6208    0.0000 C   0  0  0  0  0  0           0  0  0
    5.0833    2.9208    0.0000 C   0  0  0  0  0  0           0  0  0
    1.4042    3.0208    0.0000 C   0  0  0  0  0  0           0  0  0
    1.4042    1.5208    0.0000 C   0  0  0  0  0  0           0  0  0
    0.7542    1.8958    0.0000 C   0  0  0  0  0  0           0  0  0
    0.7542    2.6458    0.0000 C   0  0  0  0  0  0           0  0  0
  2  1  2  0     0  0
  3  5  1  0     0  0
  4  1  1  0     0  0
  5 13  1  0     0  0
  6 10  1  0     0  0
  7  3  2  0     0  0
  8 14  2  0     0  0
  9 15  2  0     0  0
 10  7  1  0     0  0
 11  2  1  0     0  0
 12  4  1  0     0  0
 13 23  1  0     0  0
 14  6  1  0     0  0
 15  6  1  0     0  0
 16  1  1  0     0  0
 17  3  1  0     0  0
 18  5  2  0     0  0
 19 20  1  0     0  0
 20 17  2  0     0  0
 21 16  1  0     0  0
 22 16  2  0     0  0
 23 26  2  0     0  0
 24 17  1  0     0  0
 25 21  2  0     0  0
 26 22  1  0     0  0
 27 11  1  0     0  0
 28 12  1  0     0  0
 29 28  2  0     0  0
 30 27  2  0     0  0
 12 11  2  0     0  0
 25 23  1  0     0  0
 29 30  1  0     0  0
 10 19  2  0     0  0
  8  9  1  0     0  0
M  END


>  <ID>
7927865

>  <cLogP>
2.78

>  <LogSW>
-4.59

>  <RB>
4

>  <tPSA>
88.5

>  <hDon>
2

>  <hAcc>
4

>  <MolName>
N-[4-(1H-benzimidazol-2-yl)phenyl]-2-chloro-5-(4H-1,2,4-triazol-4-yl)benzamide

$$$$
