
  Accelrys04102014222D 1   1.00000     0.00000     0

 22 25  0     0  0            999 V2000
   -2.9125    3.7458    0.0000 N   0  0  3  0  0  0           0  0  0
    2.3375    2.4458    0.0000 C   0  0  0  0  0  0           0  0  0
   -2.1625    3.7458    0.0000 C   0  0  0  0  0  0           0  0  0
    2.7125    3.0958    0.0000 C   0  0  0  0  0  0           0  0  0
    2.8375    1.8875    0.0000 O   0  0  0  0  0  0           0  0  0
    3.4458    2.9417    0.0000 O   0  0  0  0  0  0           0  0  0
    3.5250    2.1958    0.0000 C   0  0  0  0  0  0           0  0  0
    1.5875    2.4458    0.0000 C   0  0  0  0  0  0           0  0  0
    0.0875    3.7458    0.0000 N   0  0  0  0  0  0           0  0  0
    2.3375    3.7458    0.0000 C   0  0  0  0  0  0           0  0  0
   -1.7875    3.0958    0.0000 C   0  0  0  0  0  0           0  0  0
   -1.7875    4.3917    0.0000 C   0  0  0  0  0  0           0  0  0
   -0.6625    3.7458    0.0000 C   0  0  0  0  0  0           0  0  0
    1.2125    3.0958    0.0000 C   0  0  0  0  0  0           0  0  0
    0.4625    3.0958    0.0000 C   0  0  0  0  0  0           0  0  0
   -1.0375    4.3917    0.0000 C   0  0  0  0  0  0           0  0  0
   -1.0375    3.0958    0.0000 C   0  0  0  0  0  0           0  0  0
    1.5875    3.7458    0.0000 C   0  0  0  0  0  0           0  0  0
   -3.3542    4.3458    0.0000 C   0  0  0  0  0  0           0  0  0
   -3.3542    3.1375    0.0000 C   0  0  0  0  0  0           0  0  0
   -4.0667    3.3708    0.0000 C   0  0  0  0  0  0           0  0  0
   -4.0667    4.1167    0.0000 C   0  0  0  0  0  0           0  0  0
  2  8  2  0     0  0
  3  1  1  0     0  0
  4 10  2  0     0  0
  5  2  1  0     0  0
  6  4  1  0     0  0
  7  5  1  0     0  0
  8 14  1  0     0  0
  9 13  1  0     0  0
 10 18  1  0     0  0
 11  3  2  0     0  0
 12  3  1  0     0  0
 13 16  1  0     0  0
 14 15  1  0     0  0
 15  9  1  0     0  0
 16 12  2  0     0  0
 17 11  1  0     0  0
 18 14  2  0     0  0
 19  1  1  0     0  0
 20  1  1  0     0  0
 21 20  1  0     0  0
 22 19  1  0     0  0
 22 21  1  0     0  0
 17 13  2  0     0  0
  2  4  1  0     0  0
  7  6  1  0     0  0
M  END


>  <ID>
7927434

>  <cLogP>
3.45

>  <LogSW>
-4.31

>  <RB>
4

>  <tPSA>
33.7

>  <hDon>
1

>  <hAcc>
2

>  <MolName>
(1,3-benzodioxol-5-ylmethyl)[4-(1-pyrrolidinyl)phenyl]amine

$$$$
