
  Accelrys04102014222D 1   1.00000     0.00000     0

 22 23  0     0  0            999 V2000
   -3.3458   -1.7167    0.0000 C   0  0  3  0  0  0           0  0  0
    0.2542   -0.0792    0.0000 C   0  0  0  0  0  0           0  0  0
   -2.5000   -1.7375    0.0000 C   0  0  0  0  0  0           0  0  0
    0.7167    0.7208    0.0000 N   0  0  0  0  0  0           0  0  0
    3.0167    1.5208    0.0000 C   0  0  0  0  0  0           0  0  0
   -0.6625   -0.0917    0.0000 N   0  0  0  0  0  0           0  0  0
    2.1000    1.5208    0.0000 C   0  0  0  0  0  0           0  0  0
    1.6375    0.7458    0.0000 C   0  0  0  0  0  0           0  0  0
    3.4792    0.7458    0.0000 C   0  0  0  0  0  0           0  0  0
    0.7375   -0.8792    0.0000 O   0  0  0  0  0  0           0  0  0
   -2.0458   -0.9375    0.0000 C   0  0  0  0  0  0           0  0  0
   -1.1208   -0.9167    0.0000 C   0  0  0  0  0  0           0  0  0
   -3.5958   -0.8167    0.0000 F   0  0  0  0  0  0           0  0  0
   -4.2333   -1.8000    0.0000 F   0  0  0  0  0  0           0  0  0
   -3.5458   -2.3792    0.0000 F   0  0  0  0  0  0           0  0  0
    3.0167   -0.0792    0.0000 C   0  0  0  0  0  0           0  0  0
    3.5000    2.3458    0.0000 Cl  0  0  0  0  0  0           0  0  0
    2.1000   -0.0792    0.0000 C   0  0  0  0  0  0           0  0  0
    4.4000    0.7625    0.0000 Cl  0  0  0  0  0  0           0  0  0
   -2.0458   -2.5167    0.0000 C   0  0  0  0  0  0           0  0  0
   -1.1208   -2.5167    0.0000 C   0  0  0  0  0  0           0  0  0
   -0.6625   -1.7375    0.0000 C   0  0  0  0  0  0           0  0  0
  2  6  1  0     0  0
  3  1  1  0     0  0
  4  2  1  0     0  0
  5  7  2  0     0  0
  6 12  1  0     0  0
  7  8  1  0     0  0
  8  4  1  0     0  0
  9 16  2  0     0  0
 10  2  2  0     0  0
 11  3  2  0     0  0
 12 11  1  0     0  0
 13  1  1  0     0  0
 14  1  1  0     0  0
 15  1  1  0     0  0
 16 18  1  0     0  0
 17  5  1  0     0  0
 18  8  2  0     0  0
 19  9  1  0     0  0
 20  3  1  0     0  0
 21 20  2  0     0  0
 22 21  1  0     0  0
 22 12  2  0     0  0
  9  5  1  0     0  0
M  END


>  <ID>
5182554

>  <cLogP>
5.84

>  <LogSW>
-6.73

>  <RB>
2

>  <tPSA>
41.1

>  <hDon>
2

>  <hAcc>
1

>  <MolName>
N-(3,4-dichlorophenyl)-N'-[3-(trifluoromethyl)phenyl]urea

$$$$
