
  Accelrys04102014222D 1   1.00000     0.00000     0

 30 34  0     0  0            999 V2000
    1.3667   -0.7875    0.0000 C   0  0  0  0  0  0           0  0  0
    0.7042   -0.4042    0.0000 C   0  0  0  0  0  0           0  0  0
   -0.0125   -0.6500    0.0000 N   0  0  3  0  0  0           0  0  0
    0.7042    0.3500    0.0000 C   0  0  0  0  0  0           0  0  0
    2.0292   -0.4042    0.0000 C   0  0  0  0  0  0           0  0  0
    2.5875   -0.9292    0.0000 N   0  0  3  0  0  0           0  0  0
    2.2667   -1.5875    0.0000 N   0  0  0  0  0  0           0  0  0
   -0.4500   -0.0292    0.0000 C   0  0  0  0  0  0           0  0  0
    1.5292   -1.5292    0.0000 C   0  0  0  0  0  0           0  0  0
   -0.0125    0.5958    0.0000 C   0  0  0  0  0  0           0  0  0
    1.3667    0.7333    0.0000 C   0  0  0  0  0  0           0  0  0
    2.0292    0.3500    0.0000 C   0  0  0  0  0  0           0  0  0
   -0.2708   -1.3667    0.0000 C   0  0  0  0  0  0           0  0  0
    3.3292   -1.0292    0.0000 C   0  0  0  0  0  0           0  0  0
   -1.9958   -2.3667    0.0000 N   0  0  0  0  0  0           0  0  0
   -1.0125   -1.5042    0.0000 C   0  0  3  0  0  0           0  0  0
   -1.2500   -2.2292    0.0000 C   0  0  0  0  0  0           0  0  0
   -1.1958    0.0500    0.0000 C   0  0  0  0  0  0           0  0  0
   -0.3333    1.2708    0.0000 C   0  0  0  0  0  0           0  0  0
   -1.5125   -0.9500    0.0000 O   0  0  0  0  0  0           0  0  0
   -2.2500   -3.0875    0.0000 C   0  0  3  0  0  0           0  0  0
    3.7875   -0.4292    0.0000 C   0  0  0  0  0  0           0  0  0
    3.6042   -1.7042    0.0000 C   0  0  0  0  0  0           0  0  0
   -1.7500   -3.6500    0.0000 C   0  0  0  0  0  0           0  0  0
   -2.9958   -3.2292    0.0000 C   0  0  0  0  0  0           0  0  0
   -1.0708    1.3708    0.0000 C   0  0  0  0  0  0           0  0  0
   -1.5125    0.7333    0.0000 C   0  0  0  0  0  0           0  0  0
    4.5292   -0.5042    0.0000 C   0  0  0  0  0  0           0  0  0
    4.3667   -1.8042    0.0000 C   0  0  0  0  0  0           0  0  0
    4.8500   -1.2042    0.0000 C   0  0  0  0  0  0           0  0  0
  2  1  1  0     0  0
  3  2  1  0     0  0
  4  2  2  0     0  0
  5  1  2  0     0  0
  6  5  1  0     0  0
  7  9  2  0     0  0
  8  3  1  0     0  0
  9  1  1  0     0  0
 10  4  1  0     0  0
 11 12  1  0     0  0
 12  5  1  0     0  0
 13  3  1  0     0  0
 14  6  1  0     0  0
 15 17  1  0     0  0
 16 13  1  0     0  0
 17 16  1  0     0  0
 18  8  1  0     0  0
 19 10  1  0     0  0
 20 16  1  0     0  0
 21 15  1  0     0  0
 22 14  2  0     0  0
 23 14  1  0     0  0
 24 21  1  0     0  0
 25 21  1  0     0  0
 26 19  2  0     0  0
 27 18  2  0     0  0
 28 22  1  0     0  0
 29 23  2  0     0  0
 30 29  1  0     0  0
  7  6  1  0     0  0
 11  4  1  0     0  0
 10  8  2  0     0  0
 26 27  1  0     0  0
 30 28  2  0     0  0
M  END


>  <ID>
5169083

>  <cLogP>
4.59

>  <LogSW>
-6.04

>  <RB>
5

>  <tPSA>
55.0

>  <hDon>
2

>  <hAcc>
5

>  <MolName>
1-(isopropylamino)-3-(3-phenyl-4,5-dihydropyrazolo[4,3-a]carbazol-10(3H)-yl)-2-propanol

$$$$
