
  Accelrys04102014222D 1   1.00000     0.00000     0

 21 23  0     0  0            999 V2000
    0.3375    1.4500    0.0000 S   0  0  0  0  0  0           0  0  0
   -0.1708    0.8958    0.0000 C   0  0  0  0  0  0           0  0  0
    1.0167    1.1458    0.0000 C   0  0  0  0  0  0           0  0  0
    0.9417    0.3958    0.0000 C   0  0  0  0  0  0           0  0  0
    0.2042    0.2458    0.0000 C   0  0  0  0  0  0           0  0  0
   -0.9125    0.9708    0.0000 C   0  0  0  0  0  0           0  0  0
   -1.2208    1.6583    0.0000 N   0  0  0  0  0  0           0  0  0
    1.6667    1.5208    0.0000 C   0  0  0  0  0  0           0  0  0
   -1.3500    0.3625    0.0000 O   0  0  0  0  0  0           0  0  0
   -3.0125    2.4958    0.0000 N   0  0  0  0  0  0           0  0  0
   -1.9667    1.7333    0.0000 C   0  0  0  0  0  0           0  0  0
    1.5000   -0.1042    0.0000 C   0  0  0  0  0  0           0  0  0
   -2.2708    2.4208    0.0000 C   0  0  0  0  0  0           0  0  0
   -3.4583    1.8958    0.0000 C   0  0  0  0  0  0           0  0  0
    2.3167    1.1458    0.0000 C   0  0  0  0  0  0           0  0  0
    1.6667    2.2708    0.0000 C   0  0  0  0  0  0           0  0  0
   -2.4083    1.1250    0.0000 C   0  0  0  0  0  0           0  0  0
   -3.1500    1.2083    0.0000 C   0  0  0  0  0  0           0  0  0
    2.3167    2.6458    0.0000 C   0  0  0  0  0  0           0  0  0
    2.9667    1.5208    0.0000 C   0  0  0  0  0  0           0  0  0
    2.9667    2.2708    0.0000 C   0  0  0  0  0  0           0  0  0
  2  1  1  0     0  0
  3  1  1  0     0  0
  4  3  2  0     0  0
  5  2  2  0     0  0
  6  2  1  0     0  0
  7  6  1  0     0  0
  8  3  1  0     0  0
  9  6  2  0     0  0
 10 13  2  0     0  0
 11  7  1  0     0  0
 12  4  1  0     0  0
 13 11  1  0     0  0
 14 18  2  0     0  0
 15  8  2  0     0  0
 16  8  1  0     0  0
 17 11  2  0     0  0
 18 17  1  0     0  0
 19 16  2  0     0  0
 20 15  1  0     0  0
 21 19  1  0     0  0
  4  5  1  0     0  0
 21 20  2  0     0  0
 14 10  1  0     0  0
M  END


>  <ID>
7948346

>  <cLogP>
4.02

>  <LogSW>
-4.78

>  <RB>
3

>  <tPSA>
42.0

>  <hDon>
1

>  <hAcc>
2

>  <MolName>
4-methyl-5-phenyl-N-3-pyridinyl-2-thiophenecarboxamide

$$$$
