
  Accelrys04102014222D 1   1.00000     0.00000     0

 28 33  0     0  0            999 V2000
   -0.0333    0.3208    0.0000 N   0  0  3  0  0  0           0  0  0
    0.3667    0.8833    0.0000 C   0  0  0  0  0  0           0  0  0
   -0.0333    1.4625    0.0000 N   0  0  0  0  0  0           0  0  0
   -0.6958    0.5458    0.0000 C   0  0  0  0  0  0           0  0  0
   -0.6958    1.2458    0.0000 C   0  0  0  0  0  0           0  0  0
    1.0500    0.8208    0.0000 C   0  0  0  0  0  0           0  0  0
    0.2042   -0.3375    0.0000 C   0  0  0  0  0  0           0  0  0
    2.1292    1.3833    0.0000 C   0  0  0  0  0  0           0  0  0
   -0.4708   -2.0375    0.0000 C   0  0  0  0  0  0           0  0  0
    1.4500    1.4208    0.0000 C   0  0  0  0  0  0           0  0  0
    2.4417    0.7458    0.0000 C   0  0  0  0  0  0           0  0  0
   -1.1333   -1.9167    0.0000 C   0  0  0  0  0  0           0  0  0
    2.6292    1.8625    0.0000 O   0  0  0  0  0  0           0  0  0
   -0.3708   -2.7167    0.0000 O   0  0  0  0  0  0           0  0  0
   -1.4500   -2.5375    0.0000 O   0  0  0  0  0  0           0  0  0
    3.1292    0.8625    0.0000 O   0  0  0  0  0  0           0  0  0
   -0.9958   -3.0167    0.0000 C   0  0  0  0  0  0           0  0  0
    3.2292    1.5625    0.0000 C   0  0  0  0  0  0           0  0  0
   -0.0125   -1.5000    0.0000 C   0  0  0  0  0  0           0  0  0
   -0.2500   -0.8542    0.0000 C   0  0  0  0  0  0           0  0  0
    1.3667    0.2000    0.0000 C   0  0  0  0  0  0           0  0  0
    2.0500    0.1625    0.0000 C   0  0  0  0  0  0           0  0  0
   -1.3958   -1.2542    0.0000 C   0  0  0  0  0  0           0  0  0
   -0.9333   -0.7375    0.0000 C   0  0  0  0  0  0           0  0  0
   -1.2958    0.1833    0.0000 C   0  0  0  0  0  0           0  0  0
   -1.2958    1.6000    0.0000 C   0  0  0  0  0  0           0  0  0
   -1.9125    0.5208    0.0000 C   0  0  0  0  0  0           0  0  0
   -1.9125    1.2625    0.0000 C   0  0  0  0  0  0           0  0  0
  2  1  1  0     0  0
  3  2  2  0     0  0
  4  1  1  0     0  0
  5  4  2  0     0  0
  6  2  1  0     0  0
  7  1  1  0     0  0
  8 10  2  0     0  0
  9 19  2  0     0  0
 10  6  1  0     0  0
 11 22  2  0     0  0
 12 23  2  0     0  0
 13  8  1  0     0  0
 14  9  1  0     0  0
 15 12  1  0     0  0
 16 11  1  0     0  0
 17 14  1  0     0  0
 18 13  1  0     0  0
 19 20  1  0     0  0
 20  7  1  0     0  0
 21  6  2  0     0  0
 22 21  1  0     0  0
 23 24  1  0     0  0
 24 20  2  0     0  0
 25  4  1  0     0  0
 26  5  1  0     0  0
 27 25  2  0     0  0
 28 27  1  0     0  0
  3  5  1  0     0  0
 26 28  2  0     0  0
 12  9  1  0     0  0
 11  8  1  0     0  0
 17 15  1  0     0  0
 18 16  1  0     0  0
M  END


>  <ID>
5728323

>  <cLogP>
4.44

>  <LogSW>
-5.71

>  <RB>
3

>  <tPSA>
54.7

>  <hDon>
0

>  <hAcc>
6

>  <MolName>
2-(1,3-benzodioxol-5-yl)-1-(1,3-benzodioxol-5-ylmethyl)-1H-benzimidazole

$$$$
