
  Accelrys04102014222D 1   1.00000     0.00000     0

 29 32  0     0  0            999 V2000
    2.4208    2.2583    0.0000 C   0  0  0  0  0  0           0  0  0
    1.6708    3.5583    0.0000 N   0  0  0  0  0  0           0  0  0
    1.6708    2.2583    0.0000 C   0  0  0  0  0  0           0  0  0
    2.4208    3.5583    0.0000 C   0  0  0  0  0  0           0  0  0
    6.2375   -0.2958    0.0000 N   0  0  0  0  0  0           0  0  0
    2.7958    2.9083    0.0000 C   0  0  0  0  0  0           0  0  0
    1.2958    2.9083    0.0000 C   0  0  0  0  0  0           0  0  0
    5.7958    0.3083    0.0000 N   0  0  3  0  0  0           0  0  0
    2.7958    1.6083    0.0000 C   0  0  0  0  0  0           0  0  0
    6.9500    0.6833    0.0000 C   0  0  0  0  0  0           0  0  0
    6.2375    0.9167    0.0000 C   0  0  0  0  0  0           0  0  0
    6.9500   -0.0667    0.0000 C   0  0  0  0  0  0           0  0  0
    2.7958    4.2042    0.0000 C   0  0  0  0  0  0           0  0  0
    1.2958    1.6083    0.0000 C   0  0  0  0  0  0           0  0  0
    2.4208    0.9583    0.0000 O   0  0  0  0  0  0           0  0  0
    3.9208    4.8500    0.0000 N   0  0  0  0  0  0           0  0  0
    0.5458    2.9083    0.0000 C   0  0  0  0  0  0           0  0  0
    3.5458    1.6083    0.0000 N   0  0  0  0  0  0           0  0  0
    0.5458    1.6083    0.0000 C   0  0  0  0  0  0           0  0  0
    0.1708    2.2583    0.0000 C   0  0  0  0  0  0           0  0  0
    3.5458    4.2042    0.0000 C   0  0  0  0  0  0           0  0  0
    0.1708    0.9583    0.0000 Cl  0  0  0  0  0  0           0  0  0
    5.0458    0.3083    0.0000 C   0  0  0  0  0  0           0  0  0
    4.6708    0.9583    0.0000 C   0  0  0  0  0  0           0  0  0
    7.5583    1.1250    0.0000 C   0  0  0  0  0  0           0  0  0
    2.4208    4.8500    0.0000 C   0  0  0  0  0  0           0  0  0
    3.9208    0.9583    0.0000 C   0  0  0  0  0  0           0  0  0
    3.5458    5.5000    0.0000 C   0  0  0  0  0  0           0  0  0
    2.7958    5.5000    0.0000 C   0  0  0  0  0  0           0  0  0
  2  4  1  0     0  0
  3  1  2  0     0  0
  4  6  2  0     0  0
  5  8  1  0     0  0
  6  1  1  0     0  0
  7  3  1  0     0  0
  8 23  1  0     0  0
  9  1  1  0     0  0
 10 11  2  0     0  0
 11  8  1  0     0  0
 12  5  2  0     0  0
 13  4  1  0     0  0
 14  3  1  0     0  0
 15  9  2  0     0  0
 16 21  2  0     0  0
 17  7  1  0     0  0
 18  9  1  0     0  0
 19 14  2  0     0  0
 20 19  1  0     0  0
 21 13  1  0     0  0
 22 19  1  0     0  0
 23 24  1  0     0  0
 24 27  1  0     0  0
 25 10  1  0     0  0
 26 13  2  0     0  0
 27 18  1  0     0  0
 28 29  2  0     0  0
 29 26  1  0     0  0
  2  7  2  0     0  0
 20 17  2  0     0  0
 16 28  1  0     0  0
 12 10  1  0     0  0
M  END


>  <ID>
7923236

>  <cLogP>
3.83

>  <LogSW>
-5.43

>  <RB>
6

>  <tPSA>
72.7

>  <hDon>
1

>  <hAcc>
4

>  <MolName>
6-chloro-N-[3-(4-methyl-1H-pyrazol-1-yl)propyl]-2-(3-pyridinyl)-4-quinolinecarboxamide

$$$$
